REMARK  Name = C:\Users\Maximilian\Desktop\Conformers\converted_pdb\conformers_pdb\Andrographolide_conf_41.pdb
REMARK  8 active torsions:
REMARK  status: ('A' for Active; 'I' for Inactive)
REMARK    1  A    between atoms: C6_1  and  C14_9
REMARK    2  A    between atoms: C8_3  and  C18_12
REMARK    3  A    between atoms: C8_3  and  C17_24
REMARK    4  A    between atoms: C9_4  and  C19_14
REMARK    5  A    between atoms: C11_6  and  O1_27
REMARK    6  A    between atoms: C19_14  and  C21_15
REMARK    7  A    between atoms: C23_21  and  O4_22
REMARK    8  A    between atoms: C17_24  and  O2_25
REMARK                            x       y       z     vdW  Elec       q    Type
REMARK                         _______ _______ _______ _____ _____    ______ ____
ROOT
ATOM      1  C6  UNK     0      -0.536   1.164  -0.069  0.00  0.00    +0.000 C 
ATOM      2  C7  UNK     0      -1.497   0.141   0.656  0.00  0.00    +0.000 C 
ATOM      3  C8  UNK     0      -3.053   0.310   0.400  0.00  0.00    +0.000 C 
ATOM      4  C9  UNK     0       1.002   0.866   0.329  0.00  0.00    +0.000 C 
ATOM      5  C10 UNK     0      -0.942   2.609   0.404  0.00  0.00    +0.000 C 
ATOM      6  C11 UNK     0      -3.428   1.841   0.261  0.00  0.00    +0.000 C 
ATOM      7  C12 UNK     0      -0.940  -1.300   0.560  0.00  0.00    +0.000 C 
ATOM      8  C13 UNK     0      -2.390   2.766   0.933  0.00  0.00    +0.000 C 
ATOM      9  C14 UNK     0      -0.700   1.117  -1.620  0.00  0.00    +0.000 C 
ATOM     10  C15 UNK     0       0.330  -1.431   1.420  0.00  0.00    +0.000 C 
ATOM     11  C16 UNK     0       1.108  -0.131   1.483  0.00  0.00    +0.000 C 
ATOM     12  C18 UNK     0      -3.809  -0.240   1.648  0.00  0.00    +0.000 C 
ATOM     13  C20 UNK     0       1.932   0.099   2.519  0.00  0.00    +0.000 C 
ENDROOT
BRANCH   6  14
ATOM     14  O1  UNK     0      -3.626   2.227  -1.076  0.00  0.00    +0.000 OA
ATOM     15  H47 UNK     0      -4.099   3.101  -1.066  0.00  0.00    +0.000 HD
ENDBRANCH   6  14
BRANCH   4  16
ATOM     16  C19 UNK     0       1.928   0.354  -0.817  0.00  0.00    +0.000 C 
BRANCH  16  17
ATOM     17  C21 UNK     0       3.359   0.189  -0.365  0.00  0.00    +0.000 C 
ATOM     18  C22 UNK     0       4.137  -0.842  -0.727  0.00  0.00    +0.000 C 
ATOM     19  C24 UNK     0       5.530  -0.990  -0.384  0.00  0.00    +0.000 C 
ATOM     20  O3  UNK     0       6.065  -2.112  -0.974  0.00  0.00    +0.000 OA
ATOM     21  O5  UNK     0       6.191  -0.209   0.352  0.00  0.00    +0.000 OA
ATOM     22  C25 UNK     0       5.095  -2.786  -1.770  0.00  0.00    +0.000 C 
ATOM     23  C23 UNK     0       3.762  -2.013  -1.584  0.00  0.00    +0.000 C 
BRANCH  23  24
ATOM     24  O4  UNK     0       2.823  -2.811  -0.914  0.00  0.00    +0.000 OA
ATOM     25  H55 UNK     0       2.452  -3.435  -1.591  0.00  0.00    +0.000 HD
ENDBRANCH  23  24
ENDBRANCH  16  17
ENDBRANCH   4  16
BRANCH   3  26
ATOM     26  C17 UNK     0      -3.542  -0.527  -0.825  0.00  0.00    +0.000 C 
BRANCH  26  27
ATOM     27  O2  UNK     0      -4.896  -0.275  -1.106  0.00  0.00    +0.000 OA
ATOM     28  H51 UNK     0      -5.427  -0.986  -0.661  0.00  0.00    +0.000 HD
ENDBRANCH  26  27
ENDBRANCH   3  26
TORSDOF 6
