REMARK  Name = C:\Users\Maximilian\Desktop\Conformers\converted_pdb\conformers_pdb\Andrographolide_conf_44.pdb
REMARK  8 active torsions:
REMARK  status: ('A' for Active; 'I' for Inactive)
REMARK    1  A    between atoms: C6_1  and  C14_9
REMARK    2  A    between atoms: C8_3  and  C18_12
REMARK    3  A    between atoms: C8_3  and  C17_24
REMARK    4  A    between atoms: C9_4  and  C19_14
REMARK    5  A    between atoms: C11_6  and  O1_27
REMARK    6  A    between atoms: C19_14  and  C21_15
REMARK    7  A    between atoms: C23_21  and  O4_22
REMARK    8  A    between atoms: C17_24  and  O2_25
REMARK                            x       y       z     vdW  Elec       q    Type
REMARK                         _______ _______ _______ _____ _____    ______ ____
ROOT
ATOM      1  C6  UNK     0      -0.502  -0.257  -0.306  0.00  0.00    +0.000 C 
ATOM      2  C7  UNK     0      -1.828  -0.500   0.538  0.00  0.00    +0.000 C 
ATOM      3  C8  UNK     0      -2.971   0.586   0.366  0.00  0.00    +0.000 C 
ATOM      4  C9  UNK     0       0.581  -1.272   0.243  0.00  0.00    +0.000 C 
ATOM      5  C10 UNK     0      -0.022   1.201  -0.059  0.00  0.00    +0.000 C 
ATOM      6  C11 UNK     0      -2.341   2.002   0.593  0.00  0.00    +0.000 C 
ATOM      7  C12 UNK     0      -2.322  -1.984   0.467  0.00  0.00    +0.000 C 
ATOM      8  C13 UNK     0      -1.109   2.258  -0.287  0.00  0.00    +0.000 C 
ATOM      9  C14 UNK     0      -0.713  -0.490  -1.842  0.00  0.00    +0.000 C 
ATOM     10  C15 UNK     0      -1.219  -2.984   0.843  0.00  0.00    +0.000 C 
ATOM     11  C16 UNK     0       0.030  -2.680   0.060  0.00  0.00    +0.000 C 
ATOM     12  C18 UNK     0      -4.039   0.377   1.478  0.00  0.00    +0.000 C 
ATOM     13  C20 UNK     0       0.436  -3.517  -0.913  0.00  0.00    +0.000 C 
ENDROOT
BRANCH   6  14
ATOM     14  O1  UNK     0      -3.291   3.014   0.369  0.00  0.00    +0.000 OA
ATOM     15  H47 UNK     0      -2.959   3.832   0.825  0.00  0.00    +0.000 HD
ENDBRANCH   6  14
BRANCH   4  16
ATOM     16  C19 UNK     0       2.048  -1.094  -0.268  0.00  0.00    +0.000 C 
BRANCH  16  17
ATOM     17  C21 UNK     0       2.832  -0.066   0.510  0.00  0.00    +0.000 C 
ATOM     18  C22 UNK     0       4.079   0.304   0.186  0.00  0.00    +0.000 C 
ATOM     19  C24 UNK     0       4.913  -0.182  -0.895  0.00  0.00    +0.000 C 
ATOM     20  O3  UNK     0       6.142   0.441  -0.881  0.00  0.00    +0.000 OA
ATOM     21  O5  UNK     0       4.596  -1.058  -1.741  0.00  0.00    +0.000 OA
ATOM     22  C25 UNK     0       6.245   1.368   0.196  0.00  0.00    +0.000 C 
ATOM     23  C23 UNK     0       4.879   1.329   0.933  0.00  0.00    +0.000 C 
BRANCH  23  24
ATOM     24  O4  UNK     0       4.246   2.585   0.918  0.00  0.00    +0.000 OA
ATOM     25  H55 UNK     0       4.093   2.836  -0.031  0.00  0.00    +0.000 HD
ENDBRANCH  23  24
ENDBRANCH  16  17
ENDBRANCH   4  16
BRANCH   3  26
ATOM     26  C17 UNK     0      -3.691   0.493  -1.019  0.00  0.00    +0.000 C 
BRANCH  26  27
ATOM     27  O2  UNK     0      -4.813   1.336  -1.081  0.00  0.00    +0.000 OA
ATOM     28  H51 UNK     0      -5.604   0.796  -0.821  0.00  0.00    +0.000 HD
ENDBRANCH  26  27
ENDBRANCH   3  26
TORSDOF 6
