REMARK  Name = C:\Users\Maximilian\Desktop\Conformers\converted_pdb\conformers_pdb\Andrographolide_conf_30.pdb
REMARK  8 active torsions:
REMARK  status: ('A' for Active; 'I' for Inactive)
REMARK    1  A    between atoms: C6_1  and  C14_9
REMARK    2  A    between atoms: C8_3  and  C18_12
REMARK    3  A    between atoms: C8_3  and  C17_24
REMARK    4  A    between atoms: C9_4  and  C19_14
REMARK    5  A    between atoms: C11_6  and  O1_27
REMARK    6  A    between atoms: C19_14  and  C21_15
REMARK    7  A    between atoms: C23_21  and  O4_22
REMARK    8  A    between atoms: C17_24  and  O2_25
REMARK                            x       y       z     vdW  Elec       q    Type
REMARK                         _______ _______ _______ _____ _____    ______ ____
ROOT
ATOM      1  C6  UNK     0      -0.670   0.459   0.377  0.00  0.00    +0.000 C 
ATOM      2  C7  UNK     0      -1.633  -0.160  -0.704  0.00  0.00    +0.000 C 
ATOM      3  C8  UNK     0      -2.952  -0.902  -0.164  0.00  0.00    +0.000 C 
ATOM      4  C9  UNK     0       0.786   0.501  -0.253  0.00  0.00    +0.000 C 
ATOM      5  C10 UNK     0      -0.668  -0.476   1.611  0.00  0.00    +0.000 C 
ATOM      6  C11 UNK     0      -3.267  -0.581   1.338  0.00  0.00    +0.000 C 
ATOM      7  C12 UNK     0      -1.816   0.838  -1.883  0.00  0.00    +0.000 C 
ATOM      8  C13 UNK     0      -2.040  -0.628   2.285  0.00  0.00    +0.000 C 
ATOM      9  C14 UNK     0      -1.105   1.896   0.817  0.00  0.00    +0.000 C 
ATOM     10  C15 UNK     0      -0.496   1.504  -2.345  0.00  0.00    +0.000 C 
ATOM     11  C16 UNK     0       0.745   0.867  -1.743  0.00  0.00    +0.000 C 
ATOM     12  C18 UNK     0      -2.737  -2.443  -0.278  0.00  0.00    +0.000 C 
ATOM     13  C20 UNK     0       1.768   0.539  -2.552  0.00  0.00    +0.000 C 
ENDROOT
BRANCH   6  14
ATOM     14  O1  UNK     0      -3.924   0.657   1.456  0.00  0.00    +0.000 OA
ATOM     15  H47 UNK     0      -4.392   0.663   2.332  0.00  0.00    +0.000 HD
ENDBRANCH   6  14
BRANCH   4  16
ATOM     16  C19 UNK     0       1.779   1.414   0.528  0.00  0.00    +0.000 C 
BRANCH  16  17
ATOM     17  C21 UNK     0       3.219   1.184   0.153  0.00  0.00    +0.000 C 
ATOM     18  C22 UNK     0       3.962   0.141   0.557  0.00  0.00    +0.000 C 
ATOM     19  C24 UNK     0       3.601  -0.935   1.458  0.00  0.00    +0.000 C 
ATOM     20  O3  UNK     0       4.666  -1.787   1.649  0.00  0.00    +0.000 OA
ATOM     21  O5  UNK     0       2.490  -1.091   2.026  0.00  0.00    +0.000 OA
ATOM     22  C25 UNK     0       5.812  -1.355   0.924  0.00  0.00    +0.000 C 
ATOM     23  C23 UNK     0       5.387  -0.082   0.149  0.00  0.00    +0.000 C 
BRANCH  23  24
ATOM     24  O4  UNK     0       5.471  -0.311  -1.233  0.00  0.00    +0.000 OA
ATOM     25  H55 UNK     0       5.477   0.580  -1.670  0.00  0.00    +0.000 HD
ENDBRANCH  23  24
ENDBRANCH  16  17
ENDBRANCH   4  16
BRANCH   3  26
ATOM     26  C17 UNK     0      -4.213  -0.575  -1.030  0.00  0.00    +0.000 C 
BRANCH  26  27
ATOM     27  O2  UNK     0      -5.349  -1.269  -0.577  0.00  0.00    +0.000 OA
ATOM     28  H51 UNK     0      -5.828  -0.670   0.055  0.00  0.00    +0.000 HD
ENDBRANCH  26  27
ENDBRANCH   3  26
TORSDOF 6
