REMARK  Name = C:\Users\Maximilian\Desktop\Conformers\converted_pdb\conformers_pdb\Andrographolide_conf_39.pdb
REMARK  8 active torsions:
REMARK  status: ('A' for Active; 'I' for Inactive)
REMARK    1  A    between atoms: C6_1  and  C14_9
REMARK    2  A    between atoms: C8_3  and  C18_12
REMARK    3  A    between atoms: C8_3  and  C17_24
REMARK    4  A    between atoms: C9_4  and  C19_14
REMARK    5  A    between atoms: C11_6  and  O1_27
REMARK    6  A    between atoms: C19_14  and  C21_15
REMARK    7  A    between atoms: C23_21  and  O4_22
REMARK    8  A    between atoms: C17_24  and  O2_25
REMARK                            x       y       z     vdW  Elec       q    Type
REMARK                         _______ _______ _______ _____ _____    ______ ____
ROOT
ATOM      1  C6  UNK     0      -0.427   0.380  -0.521  0.00  0.00    +0.000 C 
ATOM      2  C7  UNK     0      -1.654  -0.552  -0.164  0.00  0.00    +0.000 C 
ATOM      3  C8  UNK     0      -3.002   0.158   0.326  0.00  0.00    +0.000 C 
ATOM      4  C9  UNK     0       0.882  -0.525  -0.507  0.00  0.00    +0.000 C 
ATOM      5  C10 UNK     0      -0.236   1.533   0.538  0.00  0.00    +0.000 C 
ATOM      6  C11 UNK     0      -2.712   1.558   0.977  0.00  0.00    +0.000 C 
ATOM      7  C12 UNK     0      -1.879  -1.650  -1.248  0.00  0.00    +0.000 C 
ATOM      8  C13 UNK     0      -1.321   1.597   1.614  0.00  0.00    +0.000 C 
ATOM      9  C14 UNK     0      -0.646   1.043  -1.916  0.00  0.00    +0.000 C 
ATOM     10  C15 UNK     0      -0.587  -2.282  -1.806  0.00  0.00    +0.000 C 
ATOM     11  C16 UNK     0       0.630  -1.959  -0.977  0.00  0.00    +0.000 C 
ATOM     12  C18 UNK     0      -3.644  -0.749   1.417  0.00  0.00    +0.000 C 
ATOM     13  C20 UNK     0       1.448  -2.956  -0.593  0.00  0.00    +0.000 C 
ENDROOT
BRANCH   6  14
ATOM     14  O1  UNK     0      -2.825   2.596   0.031  0.00  0.00    +0.000 OA
ATOM     15  H47 UNK     0      -2.894   3.447   0.538  0.00  0.00    +0.000 HD
ENDBRANCH   6  14
BRANCH   4  16
ATOM     16  C19 UNK     0       2.077   0.120  -1.263  0.00  0.00    +0.000 C 
BRANCH  16  17
ATOM     17  C21 UNK     0       3.402  -0.523  -0.951  0.00  0.00    +0.000 C 
ATOM     18  C22 UNK     0       4.122  -0.262   0.151  0.00  0.00    +0.000 C 
ATOM     19  C24 UNK     0       5.382  -0.885   0.479  0.00  0.00    +0.000 C 
ATOM     20  O3  UNK     0       5.862  -0.422   1.683  0.00  0.00    +0.000 OA
ATOM     21  O5  UNK     0       5.980  -1.742  -0.224  0.00  0.00    +0.000 OA
ATOM     22  C25 UNK     0       4.971   0.528   2.260  0.00  0.00    +0.000 C 
ATOM     23  C23 UNK     0       3.799   0.699   1.257  0.00  0.00    +0.000 C 
BRANCH  23  24
ATOM     24  O4  UNK     0       3.766   2.010   0.760  0.00  0.00    +0.000 OA
ATOM     25  H55 UNK     0       3.343   2.566   1.465  0.00  0.00    +0.000 HD
ENDBRANCH  23  24
ENDBRANCH  16  17
ENDBRANCH   4  16
BRANCH   3  26
ATOM     26  C17 UNK     0      -4.067   0.304  -0.811  0.00  0.00    +0.000 C 
BRANCH  26  27
ATOM     27  O2  UNK     0      -5.163   1.079  -0.392  0.00  0.00    +0.000 OA
ATOM     28  H51 UNK     0      -5.864   0.453  -0.073  0.00  0.00    +0.000 HD
ENDBRANCH  26  27
ENDBRANCH   3  26
TORSDOF 6
