REMARK  Name = C:\Users\Maximilian\Desktop\Conformers\converted_pdb\conformers_pdb\Andrographolide_conf_66.pdb
REMARK  8 active torsions:
REMARK  status: ('A' for Active; 'I' for Inactive)
REMARK    1  A    between atoms: C6_1  and  C14_9
REMARK    2  A    between atoms: C8_3  and  C18_12
REMARK    3  A    between atoms: C8_3  and  C17_24
REMARK    4  A    between atoms: C9_4  and  C19_14
REMARK    5  A    between atoms: C11_6  and  O1_27
REMARK    6  A    between atoms: C19_14  and  C21_15
REMARK    7  A    between atoms: C23_21  and  O4_22
REMARK    8  A    between atoms: C17_24  and  O2_25
REMARK                            x       y       z     vdW  Elec       q    Type
REMARK                         _______ _______ _______ _____ _____    ______ ____
ROOT
ATOM      1  C6  UNK     0      -0.441  -0.536   0.329  0.00  0.00    +0.000 C 
ATOM      2  C7  UNK     0      -1.645   0.464   0.146  0.00  0.00    +0.000 C 
ATOM      3  C8  UNK     0      -2.680   0.129  -1.037  0.00  0.00    +0.000 C 
ATOM      4  C9  UNK     0       0.741   0.266   1.017  0.00  0.00    +0.000 C 
ATOM      5  C10 UNK     0       0.020  -0.996  -1.078  0.00  0.00    +0.000 C 
ATOM      6  C11 UNK     0      -2.515  -1.331  -1.593  0.00  0.00    +0.000 C 
ATOM      7  C12 UNK     0      -2.248   0.840   1.532  0.00  0.00    +0.000 C 
ATOM      8  C13 UNK     0      -1.055  -1.749  -1.879  0.00  0.00    +0.000 C 
ATOM      9  C14 UNK     0      -0.826  -1.782   1.196  0.00  0.00    +0.000 C 
ATOM     10  C15 UNK     0      -1.190   1.056   2.641  0.00  0.00    +0.000 C 
ATOM     11  C16 UNK     0       0.219   1.215   2.101  0.00  0.00    +0.000 C 
ATOM     12  C18 UNK     0      -2.421   1.097  -2.231  0.00  0.00    +0.000 C 
ATOM     13  C20 UNK     0       0.980   2.234   2.535  0.00  0.00    +0.000 C 
ENDROOT
BRANCH   6  14
ATOM     14  O1  UNK     0      -3.107  -2.278  -0.736  0.00  0.00    +0.000 OA
ATOM     15  H47 UNK     0      -4.029  -2.452  -1.060  0.00  0.00    +0.000 HD
ENDBRANCH   6  14
BRANCH   4  16
ATOM     16  C19 UNK     0       1.878  -0.644   1.571  0.00  0.00    +0.000 C 
BRANCH  16  17
ATOM     17  C21 UNK     0       3.207   0.060   1.639  0.00  0.00    +0.000 C 
ATOM     18  C22 UNK     0       4.009   0.240   0.578  0.00  0.00    +0.000 C 
ATOM     19  C24 UNK     0       5.270   0.942   0.605  0.00  0.00    +0.000 C 
ATOM     20  O3  UNK     0       5.835   0.985  -0.649  0.00  0.00    +0.000 OA
ATOM     21  O5  UNK     0       5.799   1.458   1.624  0.00  0.00    +0.000 OA
ATOM     22  C25 UNK     0       5.004   0.342  -1.610  0.00  0.00    +0.000 C 
ATOM     23  C23 UNK     0       3.789  -0.228  -0.829  0.00  0.00    +0.000 C 
BRANCH  23  24
ATOM     24  O4  UNK     0       3.794  -1.630  -0.872  0.00  0.00    +0.000 OA
ATOM     25  H55 UNK     0       3.456  -1.884  -1.770  0.00  0.00    +0.000 HD
ENDBRANCH  23  24
ENDBRANCH  16  17
ENDBRANCH   4  16
BRANCH   3  26
ATOM     26  C17 UNK     0      -4.179   0.319  -0.631  0.00  0.00    +0.000 C 
BRANCH  26  27
ATOM     27  O2  UNK     0      -4.480   1.657  -0.325  0.00  0.00    +0.000 OA
ATOM     28  H51 UNK     0      -4.861   2.069  -1.144  0.00  0.00    +0.000 HD
ENDBRANCH  26  27
ENDBRANCH   3  26
TORSDOF 6
