REMARK  Name = C:\Users\Maximilian\Desktop\Conformers\converted_pdb\conformers_pdb\Andrographolide_conf_59.pdb
REMARK  8 active torsions:
REMARK  status: ('A' for Active; 'I' for Inactive)
REMARK    1  A    between atoms: C6_1  and  C14_9
REMARK    2  A    between atoms: C8_3  and  C18_12
REMARK    3  A    between atoms: C8_3  and  C17_24
REMARK    4  A    between atoms: C9_4  and  C19_14
REMARK    5  A    between atoms: C11_6  and  O1_27
REMARK    6  A    between atoms: C19_14  and  C21_15
REMARK    7  A    between atoms: C23_21  and  O4_22
REMARK    8  A    between atoms: C17_24  and  O2_25
REMARK                            x       y       z     vdW  Elec       q    Type
REMARK                         _______ _______ _______ _____ _____    ______ ____
ROOT
ATOM      1  C6  UNK     0      -0.432   0.476   0.285  0.00  0.00    +0.000 C 
ATOM      2  C7  UNK     0      -1.500   0.277  -0.877  0.00  0.00    +0.000 C 
ATOM      3  C8  UNK     0      -2.840  -0.509  -0.512  0.00  0.00    +0.000 C 
ATOM      4  C9  UNK     0       0.893   1.080  -0.362  0.00  0.00    +0.000 C 
ATOM      5  C10 UNK     0      -0.128  -0.922   0.935  0.00  0.00    +0.000 C 
ATOM      6  C11 UNK     0      -2.632  -1.490   0.698  0.00  0.00    +0.000 C 
ATOM      7  C12 UNK     0      -1.749   1.568  -1.708  0.00  0.00    +0.000 C 
ATOM      8  C13 UNK     0      -1.194  -2.019   0.752  0.00  0.00    +0.000 C 
ATOM      9  C14 UNK     0      -0.932   1.458   1.383  0.00  0.00    +0.000 C 
ATOM     10  C15 UNK     0      -0.448   2.117  -2.293  0.00  0.00    +0.000 C 
ATOM     11  C16 UNK     0       0.531   2.326  -1.174  0.00  0.00    +0.000 C 
ATOM     12  C18 UNK     0      -3.225  -1.382  -1.745  0.00  0.00    +0.000 C 
ATOM     13  C20 UNK     0       0.862   3.583  -0.815  0.00  0.00    +0.000 C 
ENDROOT
BRANCH   6  14
ATOM     14  O1  UNK     0      -2.979  -0.905   1.927  0.00  0.00    +0.000 OA
ATOM     15  H47 UNK     0      -3.061  -1.639   2.591  0.00  0.00    +0.000 HD
ENDBRANCH   6  14
BRANCH   4  16
ATOM     16  C19 UNK     0       2.114   1.333   0.587  0.00  0.00    +0.000 C 
BRANCH  16  17
ATOM     17  C21 UNK     0       2.767   0.087   1.116  0.00  0.00    +0.000 C 
ATOM     18  C22 UNK     0       3.565  -0.720   0.398  0.00  0.00    +0.000 C 
ATOM     19  C24 UNK     0       3.994  -0.583  -0.980  0.00  0.00    +0.000 C 
ATOM     20  O3  UNK     0       4.771  -1.655  -1.356  0.00  0.00    +0.000 OA
ATOM     21  O5  UNK     0       3.737   0.380  -1.749  0.00  0.00    +0.000 OA
ATOM     22  C25 UNK     0       4.921  -2.585  -0.289  0.00  0.00    +0.000 C 
ATOM     23  C23 UNK     0       4.164  -1.986   0.925  0.00  0.00    +0.000 C 
BRANCH  23  24
ATOM     24  O4  UNK     0       5.050  -1.692   1.972  0.00  0.00    +0.000 OA
ATOM     25  H55 UNK     0       5.269  -2.559   2.403  0.00  0.00    +0.000 HD
ENDBRANCH  23  24
ENDBRANCH  16  17
ENDBRANCH   4  16
BRANCH   3  26
ATOM     26  C17 UNK     0      -4.078   0.414  -0.265  0.00  0.00    +0.000 C 
BRANCH  26  27
ATOM     27  O2  UNK     0      -3.831   1.391   0.705  0.00  0.00    +0.000 OA
ATOM     28  H51 UNK     0      -4.669   1.916   0.792  0.00  0.00    +0.000 HD
ENDBRANCH  26  27
ENDBRANCH   3  26
TORSDOF 6
