REMARK  Name = C:\Users\Maximilian\Desktop\Conformers\converted_pdb\conformers_pdb\Andrographolide_conf_56.pdb
REMARK  8 active torsions:
REMARK  status: ('A' for Active; 'I' for Inactive)
REMARK    1  A    between atoms: C6_1  and  C14_9
REMARK    2  A    between atoms: C8_3  and  C18_12
REMARK    3  A    between atoms: C8_3  and  C17_24
REMARK    4  A    between atoms: C9_4  and  C19_14
REMARK    5  A    between atoms: C11_6  and  O1_27
REMARK    6  A    between atoms: C19_14  and  C21_15
REMARK    7  A    between atoms: C23_21  and  O4_22
REMARK    8  A    between atoms: C17_24  and  O2_25
REMARK                            x       y       z     vdW  Elec       q    Type
REMARK                         _______ _______ _______ _____ _____    ______ ____
ROOT
ATOM      1  C6  UNK     0      -0.739  -0.501   0.165  0.00  0.00    +0.000 C 
ATOM      2  C7  UNK     0      -1.690   0.721  -0.116  0.00  0.00    +0.000 C 
ATOM      3  C8  UNK     0      -3.271   0.436  -0.053  0.00  0.00    +0.000 C 
ATOM      4  C9  UNK     0       0.637  -0.213  -0.569  0.00  0.00    +0.000 C 
ATOM      5  C10 UNK     0      -1.386  -1.765  -0.456  0.00  0.00    +0.000 C 
ATOM      6  C11 UNK     0      -3.624  -0.943   0.613  0.00  0.00    +0.000 C 
ATOM      7  C12 UNK     0      -1.170   1.985   0.629  0.00  0.00    +0.000 C 
ATOM      8  C13 UNK     0      -2.753  -2.132   0.142  0.00  0.00    +0.000 C 
ATOM      9  C14 UNK     0      -0.494  -0.728   1.694  0.00  0.00    +0.000 C 
ATOM     10  C15 UNK     0       0.365   2.175   0.540  0.00  0.00    +0.000 C 
ATOM     11  C16 UNK     0       1.028   1.267  -0.479  0.00  0.00    +0.000 C 
ATOM     12  C18 UNK     0      -3.824   0.405  -1.510  0.00  0.00    +0.000 C 
ATOM     13  C20 UNK     0       1.908   1.790  -1.351  0.00  0.00    +0.000 C 
ENDROOT
BRANCH   6  14
ATOM     14  O1  UNK     0      -3.572  -0.861   2.018  0.00  0.00    +0.000 OA
ATOM     15  H47 UNK     0      -4.493  -0.692   2.352  0.00  0.00    +0.000 HD
ENDBRANCH   6  14
BRANCH   4  16
ATOM     16  C19 UNK     0       1.803  -1.130  -0.098  0.00  0.00    +0.000 C 
BRANCH  16  17
ATOM     17  C21 UNK     0       2.880  -1.259  -1.143  0.00  0.00    +0.000 C 
ATOM     18  C22 UNK     0       4.175  -0.993  -0.917  0.00  0.00    +0.000 C 
ATOM     19  C24 UNK     0       5.235  -1.141  -1.885  0.00  0.00    +0.000 C 
ATOM     20  O3  UNK     0       6.460  -0.848  -1.326  0.00  0.00    +0.000 OA
ATOM     21  O5  UNK     0       5.086  -1.488  -3.087  0.00  0.00    +0.000 OA
ATOM     22  C25 UNK     0       6.331  -0.508   0.051  0.00  0.00    +0.000 C 
ATOM     23  C23 UNK     0       4.810  -0.527   0.364  0.00  0.00    +0.000 C 
BRANCH  23  24
ATOM     24  O4  UNK     0       4.347   0.749   0.733  0.00  0.00    +0.000 OA
ATOM     25  H55 UNK     0       4.533   1.369  -0.021  0.00  0.00    +0.000 HD
ENDBRANCH  23  24
ENDBRANCH  16  17
ENDBRANCH   4  16
BRANCH   3  26
ATOM     26  C17 UNK     0      -4.049   1.574   0.686  0.00  0.00    +0.000 C 
BRANCH  26  27
ATOM     27  O2  UNK     0      -5.427   1.298   0.754  0.00  0.00    +0.000 OA
ATOM     28  H51 UNK     0      -5.863   1.782   0.006  0.00  0.00    +0.000 HD
ENDBRANCH  26  27
ENDBRANCH   3  26
TORSDOF 6
