REMARK  Name = C:\Users\Maximilian\Desktop\Conformers\converted_pdb\conformers_pdb\Andrographolide_conf_38.pdb
REMARK  8 active torsions:
REMARK  status: ('A' for Active; 'I' for Inactive)
REMARK    1  A    between atoms: C6_1  and  C14_9
REMARK    2  A    between atoms: C8_3  and  C18_12
REMARK    3  A    between atoms: C8_3  and  C17_24
REMARK    4  A    between atoms: C9_4  and  C19_14
REMARK    5  A    between atoms: C11_6  and  O1_27
REMARK    6  A    between atoms: C19_14  and  C21_15
REMARK    7  A    between atoms: C23_21  and  O4_22
REMARK    8  A    between atoms: C17_24  and  O2_25
REMARK                            x       y       z     vdW  Elec       q    Type
REMARK                         _______ _______ _______ _____ _____    ______ ____
ROOT
ATOM      1  C6  UNK     0      -0.605   0.500  -0.164  0.00  0.00    +0.000 C 
ATOM      2  C7  UNK     0      -1.231  -0.859  -0.691  0.00  0.00    +0.000 C 
ATOM      3  C8  UNK     0      -2.717  -1.182  -0.215  0.00  0.00    +0.000 C 
ATOM      4  C9  UNK     0       0.924   0.534  -0.573  0.00  0.00    +0.000 C 
ATOM      5  C10 UNK     0      -0.727   0.558   1.405  0.00  0.00    +0.000 C 
ATOM      6  C11 UNK     0      -3.015  -0.558   1.200  0.00  0.00    +0.000 C 
ATOM      7  C12 UNK     0      -1.002  -1.074  -2.215  0.00  0.00    +0.000 C 
ATOM      8  C13 UNK     0      -1.735  -0.420   2.031  0.00  0.00    +0.000 C 
ATOM      9  C14 UNK     0      -1.305   1.743  -0.786  0.00  0.00    +0.000 C 
ATOM     10  C15 UNK     0       0.484  -1.022  -2.572  0.00  0.00    +0.000 C 
ATOM     11  C16 UNK     0       1.066   0.274  -2.077  0.00  0.00    +0.000 C 
ATOM     12  C18 UNK     0      -2.855  -2.728  -0.083  0.00  0.00    +0.000 C 
ATOM     13  C20 UNK     0       1.533   1.170  -2.969  0.00  0.00    +0.000 C 
ENDROOT
BRANCH   6  14
ATOM     14  O1  UNK     0      -3.654   0.691   1.101  0.00  0.00    +0.000 OA
ATOM     15  H47 UNK     0      -4.032   0.901   1.996  0.00  0.00    +0.000 HD
ENDBRANCH   6  14
BRANCH   4  16
ATOM     16  C19 UNK     0       1.705   1.782  -0.054  0.00  0.00    +0.000 C 
BRANCH  16  17
ATOM     17  C21 UNK     0       3.196   1.594  -0.169  0.00  0.00    +0.000 C 
ATOM     18  C22 UNK     0       3.934   0.934   0.738  0.00  0.00    +0.000 C 
ATOM     19  C24 UNK     0       5.349   0.680   0.624  0.00  0.00    +0.000 C 
ATOM     20  O3  UNK     0       5.804  -0.062   1.690  0.00  0.00    +0.000 OA
ATOM     21  O5  UNK     0       6.091   1.076  -0.314  0.00  0.00    +0.000 OA
ATOM     22  C25 UNK     0       4.748  -0.360   2.596  0.00  0.00    +0.000 C 
ATOM     23  C23 UNK     0       3.472   0.313   2.024  0.00  0.00    +0.000 C 
BRANCH  23  24
ATOM     24  O4  UNK     0       3.010   1.309   2.897  0.00  0.00    +0.000 OA
ATOM     25  H55 UNK     0       2.523   0.841   3.626  0.00  0.00    +0.000 HD
ENDBRANCH  23  24
ENDBRANCH  16  17
ENDBRANCH   4  16
BRANCH   3  26
ATOM     26  C17 UNK     0      -3.790  -0.726  -1.254  0.00  0.00    +0.000 C 
BRANCH  26  27
ATOM     27  O2  UNK     0      -5.086  -0.926  -0.753  0.00  0.00    +0.000 OA
ATOM     28  H51 UNK     0      -5.710  -0.606  -1.456  0.00  0.00    +0.000 HD
ENDBRANCH  26  27
ENDBRANCH   3  26
TORSDOF 6
