REMARK  Name = C:\Users\Maximilian\Desktop\Conformers\converted_pdb\conformers_pdb\Andrographolide_conf_60.pdb
REMARK  8 active torsions:
REMARK  status: ('A' for Active; 'I' for Inactive)
REMARK    1  A    between atoms: C6_1  and  C14_9
REMARK    2  A    between atoms: C8_3  and  C18_12
REMARK    3  A    between atoms: C8_3  and  C17_24
REMARK    4  A    between atoms: C9_4  and  C19_14
REMARK    5  A    between atoms: C11_6  and  O1_27
REMARK    6  A    between atoms: C19_14  and  C21_15
REMARK    7  A    between atoms: C23_21  and  O4_22
REMARK    8  A    between atoms: C17_24  and  O2_25
REMARK                            x       y       z     vdW  Elec       q    Type
REMARK                         _______ _______ _______ _____ _____    ______ ____
ROOT
ATOM      1  C6  UNK     0      -0.751   0.359   0.156  0.00  0.00    +0.000 C 
ATOM      2  C7  UNK     0      -1.883  -0.753   0.146  0.00  0.00    +0.000 C 
ATOM      3  C8  UNK     0      -3.339  -0.282   0.575  0.00  0.00    +0.000 C 
ATOM      4  C9  UNK     0       0.642  -0.374  -0.015  0.00  0.00    +0.000 C 
ATOM      5  C10 UNK     0      -0.787   1.090   1.529  0.00  0.00    +0.000 C 
ATOM      6  C11 UNK     0      -3.226   0.507   1.928  0.00  0.00    +0.000 C 
ATOM      7  C12 UNK     0      -1.833  -1.629  -1.146  0.00  0.00    +0.000 C 
ATOM      8  C13 UNK     0      -2.172   1.621   1.904  0.00  0.00    +0.000 C 
ATOM      9  C14 UNK     0      -0.924   1.403  -0.984  0.00  0.00    +0.000 C 
ATOM     10  C15 UNK     0      -0.461  -2.286  -1.325  0.00  0.00    +0.000 C 
ATOM     11  C16 UNK     0       0.606  -1.227  -1.284  0.00  0.00    +0.000 C 
ATOM     12  C18 UNK     0      -4.193  -1.548   0.892  0.00  0.00    +0.000 C 
ATOM     13  C20 UNK     0       1.330  -0.967  -2.391  0.00  0.00    +0.000 C 
ENDROOT
BRANCH   6  14
ATOM     14  O1  UNK     0      -4.466   1.065   2.294  0.00  0.00    +0.000 OA
ATOM     15  H47 UNK     0      -4.871   0.476   2.983  0.00  0.00    +0.000 HD
ENDBRANCH   6  14
BRANCH   4  16
ATOM     16  C19 UNK     0       1.898   0.538   0.117  0.00  0.00    +0.000 C 
BRANCH  16  17
ATOM     17  C21 UNK     0       3.179  -0.256   0.118  0.00  0.00    +0.000 C 
ATOM     18  C22 UNK     0       4.393   0.308   0.193  0.00  0.00    +0.000 C 
ATOM     19  C24 UNK     0       4.722   1.717   0.274  0.00  0.00    +0.000 C 
ATOM     20  O3  UNK     0       6.087   1.897   0.281  0.00  0.00    +0.000 OA
ATOM     21  O5  UNK     0       3.902   2.670   0.337  0.00  0.00    +0.000 OA
ATOM     22  C25 UNK     0       6.774   0.652   0.189  0.00  0.00    +0.000 C 
ATOM     23  C23 UNK     0       5.685  -0.451   0.175  0.00  0.00    +0.000 C 
BRANCH  23  24
ATOM     24  O4  UNK     0       5.797  -1.252   1.322  0.00  0.00    +0.000 OA
ATOM     25  H55 UNK     0       5.302  -2.092   1.133  0.00  0.00    +0.000 HD
ENDBRANCH  23  24
ENDBRANCH  16  17
ENDBRANCH   4  16
BRANCH   3  26
ATOM     26  C17 UNK     0      -4.103   0.514  -0.555  0.00  0.00    +0.000 C 
BRANCH  26  27
ATOM     27  O2  UNK     0      -4.257   1.876  -0.260  0.00  0.00    +0.000 OA
ATOM     28  H51 UNK     0      -4.721   2.282  -1.038  0.00  0.00    +0.000 HD
ENDBRANCH  26  27
ENDBRANCH   3  26
TORSDOF 6
