REMARK  Name = C:\Users\Maximilian\Desktop\Conformers\converted_pdb\conformers_pdb\Andrographolide_conf_58.pdb
REMARK  8 active torsions:
REMARK  status: ('A' for Active; 'I' for Inactive)
REMARK    1  A    between atoms: C6_1  and  C14_9
REMARK    2  A    between atoms: C8_3  and  C18_12
REMARK    3  A    between atoms: C8_3  and  C17_24
REMARK    4  A    between atoms: C9_4  and  C19_14
REMARK    5  A    between atoms: C11_6  and  O1_27
REMARK    6  A    between atoms: C19_14  and  C21_15
REMARK    7  A    between atoms: C23_21  and  O4_22
REMARK    8  A    between atoms: C17_24  and  O2_25
REMARK                            x       y       z     vdW  Elec       q    Type
REMARK                         _______ _______ _______ _____ _____    ______ ____
ROOT
ATOM      1  C6  UNK     0      -0.263   0.273  -0.008  0.00  0.00    +0.000 C 
ATOM      2  C7  UNK     0      -1.749   0.587  -0.479  0.00  0.00    +0.000 C 
ATOM      3  C8  UNK     0      -2.870  -0.458  -0.031  0.00  0.00    +0.000 C 
ATOM      4  C9  UNK     0       0.717   1.322  -0.698  0.00  0.00    +0.000 C 
ATOM      5  C10 UNK     0       0.114  -1.186  -0.457  0.00  0.00    +0.000 C 
ATOM      6  C11 UNK     0      -2.273  -1.908   0.127  0.00  0.00    +0.000 C 
ATOM      7  C12 UNK     0      -2.155   2.072  -0.254  0.00  0.00    +0.000 C 
ATOM      8  C13 UNK     0      -1.062  -2.122  -0.785  0.00  0.00    +0.000 C 
ATOM      9  C14 UNK     0      -0.116   0.401   1.536  0.00  0.00    +0.000 C 
ATOM     10  C15 UNK     0      -1.178   3.035  -0.926  0.00  0.00    +0.000 C 
ATOM     11  C16 UNK     0       0.206   2.738  -0.426  0.00  0.00    +0.000 C 
ATOM     12  C18 UNK     0      -3.942  -0.534  -1.159  0.00  0.00    +0.000 C 
ATOM     13  C20 UNK     0       0.813   3.615   0.398  0.00  0.00    +0.000 C 
ENDROOT
BRANCH   6  14
ATOM     14  O1  UNK     0      -1.922  -2.201   1.457  0.00  0.00    +0.000 OA
ATOM     15  H47 UNK     0      -1.805  -3.185   1.522  0.00  0.00    +0.000 HD
ENDBRANCH   6  14
BRANCH   4  16
ATOM     16  C19 UNK     0       2.245   1.178  -0.396  0.00  0.00    +0.000 C 
BRANCH  16  17
ATOM     17  C21 UNK     0       2.898   0.025  -1.110  0.00  0.00    +0.000 C 
ATOM     18  C22 UNK     0       3.614  -0.927  -0.495  0.00  0.00    +0.000 C 
ATOM     19  C24 UNK     0       4.225  -2.059  -1.151  0.00  0.00    +0.000 C 
ATOM     20  O3  UNK     0       4.846  -2.882  -0.237  0.00  0.00    +0.000 OA
ATOM     21  O5  UNK     0       4.202  -2.288  -2.389  0.00  0.00    +0.000 OA
ATOM     22  C25 UNK     0       4.689  -2.392   1.091  0.00  0.00    +0.000 C 
ATOM     23  C23 UNK     0       3.913  -1.053   0.972  0.00  0.00    +0.000 C 
BRANCH  23  24
ATOM     24  O4  UNK     0       4.683   0.029   1.436  0.00  0.00    +0.000 OA
ATOM     25  H55 UNK     0       5.502   0.080   0.876  0.00  0.00    +0.000 HD
ENDBRANCH  23  24
ENDBRANCH  16  17
ENDBRANCH   4  16
BRANCH   3  26
ATOM     26  C17 UNK     0      -3.610  -0.057   1.293  0.00  0.00    +0.000 C 
BRANCH  26  27
ATOM     27  O2  UNK     0      -4.480   1.032   1.119  0.00  0.00    +0.000 OA
ATOM     28  H51 UNK     0      -5.382   0.663   0.930  0.00  0.00    +0.000 HD
ENDBRANCH  26  27
ENDBRANCH   3  26
TORSDOF 6
