REMARK  Name = C:\Users\Maximilian\Desktop\Conformers\converted_pdb\conformers_pdb\Andrographolide_conf_64.pdb
REMARK  8 active torsions:
REMARK  status: ('A' for Active; 'I' for Inactive)
REMARK    1  A    between atoms: C6_1  and  C14_9
REMARK    2  A    between atoms: C8_3  and  C18_12
REMARK    3  A    between atoms: C8_3  and  C17_24
REMARK    4  A    between atoms: C9_4  and  C19_14
REMARK    5  A    between atoms: C11_6  and  O1_27
REMARK    6  A    between atoms: C19_14  and  C21_15
REMARK    7  A    between atoms: C23_21  and  O4_22
REMARK    8  A    between atoms: C17_24  and  O2_25
REMARK                            x       y       z     vdW  Elec       q    Type
REMARK                         _______ _______ _______ _____ _____    ______ ____
ROOT
ATOM      1  C6  UNK     0      -0.479  -0.299   0.314  0.00  0.00    +0.000 C 
ATOM      2  C7  UNK     0      -1.911  -0.587  -0.309  0.00  0.00    +0.000 C 
ATOM      3  C8  UNK     0      -3.156   0.023   0.469  0.00  0.00    +0.000 C 
ATOM      4  C9  UNK     0       0.537  -1.274  -0.405  0.00  0.00    +0.000 C 
ATOM      5  C10 UNK     0      -0.518  -0.646   1.830  0.00  0.00    +0.000 C 
ATOM      6  C11 UNK     0      -3.026  -0.354   1.984  0.00  0.00    +0.000 C 
ATOM      7  C12 UNK     0      -1.918  -0.357  -1.854  0.00  0.00    +0.000 C 
ATOM      8  C13 UNK     0      -1.667   0.034   2.577  0.00  0.00    +0.000 C 
ATOM      9  C14 UNK     0      -0.036   1.191   0.101  0.00  0.00    +0.000 C 
ATOM     10  C15 UNK     0      -0.851  -1.203  -2.567  0.00  0.00    +0.000 C 
ATOM     11  C16 UNK     0       0.496  -1.025  -1.909  0.00  0.00    +0.000 C 
ATOM     12  C18 UNK     0      -4.456  -0.649  -0.064  0.00  0.00    +0.000 C 
ATOM     13  C20 UNK     0       1.545  -0.591  -2.629  0.00  0.00    +0.000 C 
ENDROOT
BRANCH   6  14
ATOM     14  O1  UNK     0      -4.034   0.257   2.753  0.00  0.00    +0.000 OA
ATOM     15  H47 UNK     0      -4.745  -0.418   2.908  0.00  0.00    +0.000 HD
ENDBRANCH   6  14
BRANCH   4  16
ATOM     16  C19 UNK     0       1.953  -1.483   0.227  0.00  0.00    +0.000 C 
BRANCH  16  17
ATOM     17  C21 UNK     0       2.749  -0.232   0.514  0.00  0.00    +0.000 C 
ATOM     18  C22 UNK     0       4.005   0.022   0.106  0.00  0.00    +0.000 C 
ATOM     19  C24 UNK     0       4.911  -0.781  -0.701  0.00  0.00    +0.000 C 
ATOM     20  O3  UNK     0       6.118  -0.138  -0.866  0.00  0.00    +0.000 OA
ATOM     21  O5  UNK     0       4.673  -1.913  -1.195  0.00  0.00    +0.000 OA
ATOM     22  C25 UNK     0       6.141   1.116  -0.195  0.00  0.00    +0.000 C 
ATOM     23  C23 UNK     0       4.745   1.280   0.458  0.00  0.00    +0.000 C 
BRANCH  23  24
ATOM     24  O4  UNK     0       4.077   2.419  -0.028  0.00  0.00    +0.000 OA
ATOM     25  H55 UNK     0       3.954   2.304  -1.007  0.00  0.00    +0.000 HD
ENDBRANCH  23  24
ENDBRANCH  16  17
ENDBRANCH   4  16
BRANCH   3  26
ATOM     26  C17 UNK     0      -3.300   1.569   0.284  0.00  0.00    +0.000 C 
BRANCH  26  27
ATOM     27  O2  UNK     0      -4.523   2.045   0.789  0.00  0.00    +0.000 OA
ATOM     28  H51 UNK     0      -5.166   2.069   0.033  0.00  0.00    +0.000 HD
ENDBRANCH  26  27
ENDBRANCH   3  26
TORSDOF 6
