REMARK  Name = C:\Users\Maximilian\Desktop\Conformers\converted_pdb\conformers_pdb\Andrographolide_conf_57.pdb
REMARK  8 active torsions:
REMARK  status: ('A' for Active; 'I' for Inactive)
REMARK    1  A    between atoms: C6_1  and  C14_9
REMARK    2  A    between atoms: C8_3  and  C18_12
REMARK    3  A    between atoms: C8_3  and  C17_24
REMARK    4  A    between atoms: C9_4  and  C19_14
REMARK    5  A    between atoms: C11_6  and  O1_27
REMARK    6  A    between atoms: C19_14  and  C21_15
REMARK    7  A    between atoms: C23_21  and  O4_22
REMARK    8  A    between atoms: C17_24  and  O2_25
REMARK                            x       y       z     vdW  Elec       q    Type
REMARK                         _______ _______ _______ _____ _____    ______ ____
ROOT
ATOM      1  C6  UNK     0      -0.522   0.462   0.488  0.00  0.00    +0.000 C 
ATOM      2  C7  UNK     0      -1.799  -0.263  -0.100  0.00  0.00    +0.000 C 
ATOM      3  C8  UNK     0      -3.230   0.319   0.272  0.00  0.00    +0.000 C 
ATOM      4  C9  UNK     0       0.814  -0.360   0.086  0.00  0.00    +0.000 C 
ATOM      5  C10 UNK     0      -0.674   0.505   2.055  0.00  0.00    +0.000 C 
ATOM      6  C11 UNK     0      -3.212   1.010   1.688  0.00  0.00    +0.000 C 
ATOM      7  C12 UNK     0      -1.592  -0.631  -1.588  0.00  0.00    +0.000 C 
ATOM      8  C13 UNK     0      -2.119   0.423   2.607  0.00  0.00    +0.000 C 
ATOM      9  C14 UNK     0      -0.400   1.937  -0.003  0.00  0.00    +0.000 C 
ATOM     10  C15 UNK     0      -0.514  -1.721  -1.733  0.00  0.00    +0.000 C 
ATOM     11  C16 UNK     0       0.489  -1.689  -0.596  0.00  0.00    +0.000 C 
ATOM     12  C18 UNK     0      -4.218  -0.885   0.375  0.00  0.00    +0.000 C 
ATOM     13  C20 UNK     0       1.135  -2.815  -0.250  0.00  0.00    +0.000 C 
ENDROOT
BRANCH   6  14
ATOM     14  O1  UNK     0      -3.088   2.407   1.603  0.00  0.00    +0.000 OA
ATOM     15  H47 UNK     0      -3.323   2.780   2.493  0.00  0.00    +0.000 HD
ENDBRANCH   6  14
BRANCH   4  16
ATOM     16  C19 UNK     0       1.851   0.388  -0.810  0.00  0.00    +0.000 C 
BRANCH  16  17
ATOM     17  C21 UNK     0       3.082  -0.436  -1.098  0.00  0.00    +0.000 C 
ATOM     18  C22 UNK     0       4.118  -0.552  -0.254  0.00  0.00    +0.000 C 
ATOM     19  C24 UNK     0       5.283  -1.374  -0.480  0.00  0.00    +0.000 C 
ATOM     20  O3  UNK     0       6.151  -1.306   0.587  0.00  0.00    +0.000 OA
ATOM     21  O5  UNK     0       5.497  -2.073  -1.506  0.00  0.00    +0.000 OA
ATOM     22  C25 UNK     0       5.641  -0.464   1.616  0.00  0.00    +0.000 C 
ATOM     23  C23 UNK     0       4.308   0.124   1.077  0.00  0.00    +0.000 C 
BRANCH  23  24
ATOM     24  O4  UNK     0       4.388   1.521   0.939  0.00  0.00    +0.000 OA
ATOM     25  H55 UNK     0       5.114   1.721   0.290  0.00  0.00    +0.000 HD
ENDBRANCH  23  24
ENDBRANCH  16  17
ENDBRANCH   4  16
BRANCH   3  26
ATOM     26  C17 UNK     0      -3.847   1.253  -0.820  0.00  0.00    +0.000 C 
BRANCH  26  27
ATOM     27  O2  UNK     0      -2.985   2.285  -1.198  0.00  0.00    +0.000 OA
ATOM     28  H51 UNK     0      -3.471   2.820  -1.879  0.00  0.00    +0.000 HD
ENDBRANCH  26  27
ENDBRANCH   3  26
TORSDOF 6
