REMARK  Name = C:\Users\Maximilian\Desktop\Conformers\converted_pdb\conformers_pdb\Andrographolide_conf_11.pdb
REMARK  8 active torsions:
REMARK  status: ('A' for Active; 'I' for Inactive)
REMARK    1  A    between atoms: C6_1  and  C14_9
REMARK    2  A    between atoms: C8_3  and  C18_12
REMARK    3  A    between atoms: C8_3  and  C17_24
REMARK    4  A    between atoms: C9_4  and  C19_14
REMARK    5  A    between atoms: C11_6  and  O1_27
REMARK    6  A    between atoms: C19_14  and  C21_15
REMARK    7  A    between atoms: C23_21  and  O4_22
REMARK    8  A    between atoms: C17_24  and  O2_25
REMARK                            x       y       z     vdW  Elec       q    Type
REMARK                         _______ _______ _______ _____ _____    ______ ____
ROOT
ATOM      1  C6  UNK     0      -0.280  -0.132  -0.275  0.00  0.00    +0.000 C 
ATOM      2  C7  UNK     0      -1.800  -0.292  -0.689  0.00  0.00    +0.000 C 
ATOM      3  C8  UNK     0      -2.767   0.892  -0.278  0.00  0.00    +0.000 C 
ATOM      4  C9  UNK     0       0.317  -1.603  -0.131  0.00  0.00    +0.000 C 
ATOM      5  C10 UNK     0      -0.196   0.657   1.078  0.00  0.00    +0.000 C 
ATOM      6  C11 UNK     0      -2.708   1.068   1.297  0.00  0.00    +0.000 C 
ATOM      7  C12 UNK     0      -1.929  -0.837  -2.134  0.00  0.00    +0.000 C 
ATOM      8  C13 UNK     0      -1.437   0.486   1.955  0.00  0.00    +0.000 C 
ATOM      9  C14 UNK     0       0.540   0.669  -1.334  0.00  0.00    +0.000 C 
ATOM     10  C15 UNK     0      -0.999  -2.047  -2.397  0.00  0.00    +0.000 C 
ATOM     11  C16 UNK     0      -0.314  -2.570  -1.143  0.00  0.00    +0.000 C 
ATOM     12  C18 UNK     0      -4.227   0.509  -0.654  0.00  0.00    +0.000 C 
ATOM     13  C20 UNK     0      -0.274  -3.894  -0.917  0.00  0.00    +0.000 C 
ENDROOT
BRANCH   6  14
ATOM     14  O1  UNK     0      -2.839   2.416   1.678  0.00  0.00    +0.000 OA
ATOM     15  H47 UNK     0      -3.809   2.628   1.668  0.00  0.00    +0.000 HD
ENDBRANCH   6  14
BRANCH   4  16
ATOM     16  C19 UNK     0       1.868  -1.738  -0.231  0.00  0.00    +0.000 C 
BRANCH  16  17
ATOM     17  C21 UNK     0       2.590  -1.116   0.932  0.00  0.00    +0.000 C 
ATOM     18  C22 UNK     0       3.638  -0.277   0.857  0.00  0.00    +0.000 C 
ATOM     19  C24 UNK     0       4.356   0.215  -0.307  0.00  0.00    +0.000 C 
ATOM     20  O3  UNK     0       5.381   1.052   0.072  0.00  0.00    +0.000 OA
ATOM     21  O5  UNK     0       4.126  -0.075  -1.509  0.00  0.00    +0.000 OA
ATOM     22  C25 UNK     0       5.447   1.187   1.486  0.00  0.00    +0.000 C 
ATOM     23  C23 UNK     0       4.300   0.318   2.062  0.00  0.00    +0.000 C 
BRANCH  23  24
ATOM     24  O4  UNK     0       3.381   1.108   2.767  0.00  0.00    +0.000 OA
ATOM     25  H55 UNK     0       3.804   1.318   3.640  0.00  0.00    +0.000 HD
ENDBRANCH  23  24
ENDBRANCH  16  17
ENDBRANCH   4  16
BRANCH   3  26
ATOM     26  C17 UNK     0      -2.417   2.221  -1.018  0.00  0.00    +0.000 C 
BRANCH  26  27
ATOM     27  O2  UNK     0      -3.462   3.153  -0.920  0.00  0.00    +0.000 OA
ATOM     28  H51 UNK     0      -3.165   3.960  -1.415  0.00  0.00    +0.000 HD
ENDBRANCH  26  27
ENDBRANCH   3  26
TORSDOF 6
