REMARK  Name = C:\Users\Maximilian\Desktop\Conformers\converted_pdb\conformers_pdb\Andrographolide_conf_4.pdb
REMARK  8 active torsions:
REMARK  status: ('A' for Active; 'I' for Inactive)
REMARK    1  A    between atoms: C6_1  and  C14_9
REMARK    2  A    between atoms: C8_3  and  C18_12
REMARK    3  A    between atoms: C8_3  and  C17_24
REMARK    4  A    between atoms: C9_4  and  C19_14
REMARK    5  A    between atoms: C11_6  and  O1_27
REMARK    6  A    between atoms: C19_14  and  C21_15
REMARK    7  A    between atoms: C23_21  and  O4_22
REMARK    8  A    between atoms: C17_24  and  O2_25
REMARK                            x       y       z     vdW  Elec       q    Type
REMARK                         _______ _______ _______ _____ _____    ______ ____
ROOT
ATOM      1  C6  UNK     0      -0.510  -0.497   0.843  0.00  0.00    +0.000 C 
ATOM      2  C7  UNK     0      -1.625  -0.577  -0.269  0.00  0.00    +0.000 C 
ATOM      3  C8  UNK     0      -3.152  -0.372   0.175  0.00  0.00    +0.000 C 
ATOM      4  C9  UNK     0       0.833  -1.152   0.274  0.00  0.00    +0.000 C 
ATOM      5  C10 UNK     0      -0.984  -1.353   2.047  0.00  0.00    +0.000 C 
ATOM      6  C11 UNK     0      -3.458  -0.781   1.683  0.00  0.00    +0.000 C 
ATOM      7  C12 UNK     0      -1.218   0.234  -1.541  0.00  0.00    +0.000 C 
ATOM      8  C13 UNK     0      -2.264  -0.822   2.679  0.00  0.00    +0.000 C 
ATOM      9  C14 UNK     0      -0.272   0.967   1.309  0.00  0.00    +0.000 C 
ATOM     10  C15 UNK     0       0.263   0.119  -1.945  0.00  0.00    +0.000 C 
ATOM     11  C16 UNK     0       0.969  -1.007  -1.236  0.00  0.00    +0.000 C 
ATOM     12  C18 UNK     0      -4.007  -1.319  -0.708  0.00  0.00    +0.000 C 
ATOM     13  C20 UNK     0       1.722  -1.875  -1.941  0.00  0.00    +0.000 C 
ENDROOT
BRANCH   6  14
ATOM     14  O1  UNK     0      -4.501   0.003   2.226  0.00  0.00    +0.000 OA
ATOM     15  H47 UNK     0      -4.102   0.860   2.512  0.00  0.00    +0.000 HD
ENDBRANCH   6  14
BRANCH   4  16
ATOM     16  C19 UNK     0       2.161  -0.784   1.004  0.00  0.00    +0.000 C 
BRANCH  16  17
ATOM     17  C21 UNK     0       2.743   0.556   0.618  0.00  0.00    +0.000 C 
ATOM     18  C22 UNK     0       3.752   0.772  -0.246  0.00  0.00    +0.000 C 
ATOM     19  C24 UNK     0       4.634  -0.169  -0.915  0.00  0.00    +0.000 C 
ATOM     20  O3  UNK     0       5.622   0.506  -1.620  0.00  0.00    +0.000 OA
ATOM     21  O5  UNK     0       4.569  -1.419  -0.870  0.00  0.00    +0.000 OA
ATOM     22  C25 UNK     0       5.482   1.914  -1.501  0.00  0.00    +0.000 C 
ATOM     23  C23 UNK     0       4.233   2.148  -0.607  0.00  0.00    +0.000 C 
BRANCH  23  24
ATOM     24  O4  UNK     0       3.242   2.868  -1.288  0.00  0.00    +0.000 OA
ATOM     25  H55 UNK     0       2.961   2.334  -2.074  0.00  0.00    +0.000 HD
ENDBRANCH  23  24
ENDBRANCH  16  17
ENDBRANCH   4  16
BRANCH   3  26
ATOM     26  C17 UNK     0      -3.716   1.051  -0.159  0.00  0.00    +0.000 C 
BRANCH  26  27
ATOM     27  O2  UNK     0      -3.026   2.069   0.507  0.00  0.00    +0.000 OA
ATOM     28  H51 UNK     0      -3.296   2.932   0.085  0.00  0.00    +0.000 HD
ENDBRANCH  26  27
ENDBRANCH   3  26
TORSDOF 6
