REMARK  Name = C:\Users\Maximilian\Desktop\Conformers\converted_pdb\conformers_pdb\Andrographolide_conf_40.pdb
REMARK  8 active torsions:
REMARK  status: ('A' for Active; 'I' for Inactive)
REMARK    1  A    between atoms: C6_1  and  C14_9
REMARK    2  A    between atoms: C8_3  and  C18_12
REMARK    3  A    between atoms: C8_3  and  C17_24
REMARK    4  A    between atoms: C9_4  and  C19_14
REMARK    5  A    between atoms: C11_6  and  O1_27
REMARK    6  A    between atoms: C19_14  and  C21_15
REMARK    7  A    between atoms: C23_21  and  O4_22
REMARK    8  A    between atoms: C17_24  and  O2_25
REMARK                            x       y       z     vdW  Elec       q    Type
REMARK                         _______ _______ _______ _____ _____    ______ ____
ROOT
ATOM      1  C6  UNK     0      -0.681   0.622   0.230  0.00  0.00    +0.000 C 
ATOM      2  C7  UNK     0      -1.816  -0.466   0.080  0.00  0.00    +0.000 C 
ATOM      3  C8  UNK     0      -3.301   0.057   0.231  0.00  0.00    +0.000 C 
ATOM      4  C9  UNK     0       0.604  -0.145   0.744  0.00  0.00    +0.000 C 
ATOM      5  C10 UNK     0      -1.124   1.712   1.266  0.00  0.00    +0.000 C 
ATOM      6  C11 UNK     0      -3.458   0.729   1.658  0.00  0.00    +0.000 C 
ATOM      7  C12 UNK     0      -1.521  -1.418  -1.107  0.00  0.00    +0.000 C 
ATOM      8  C13 UNK     0      -2.125   1.189   2.299  0.00  0.00    +0.000 C 
ATOM      9  C14 UNK     0      -0.366   1.349  -1.114  0.00  0.00    +0.000 C 
ATOM     10  C15 UNK     0      -0.057  -1.931  -1.123  0.00  0.00    +0.000 C 
ATOM     11  C16 UNK     0       0.768  -1.525   0.092  0.00  0.00    +0.000 C 
ATOM     12  C18 UNK     0      -4.274  -1.155   0.170  0.00  0.00    +0.000 C 
ATOM     13  C20 UNK     0       1.646  -2.402   0.608  0.00  0.00    +0.000 C 
ENDROOT
BRANCH   6  14
ATOM     14  O1  UNK     0      -4.360   1.809   1.614  0.00  0.00    +0.000 OA
ATOM     15  H47 UNK     0      -4.687   1.960   2.539  0.00  0.00    +0.000 HD
ENDBRANCH   6  14
BRANCH   4  16
ATOM     16  C19 UNK     0       1.935   0.673   0.739  0.00  0.00    +0.000 C 
BRANCH  16  17
ATOM     17  C21 UNK     0       2.763   0.504  -0.516  0.00  0.00    +0.000 C 
ATOM     18  C22 UNK     0       4.049   0.119  -0.515  0.00  0.00    +0.000 C 
ATOM     19  C24 UNK     0       4.858  -0.063  -1.696  0.00  0.00    +0.000 C 
ATOM     20  O3  UNK     0       6.120  -0.501  -1.365  0.00  0.00    +0.000 OA
ATOM     21  O5  UNK     0       4.483   0.142  -2.880  0.00  0.00    +0.000 OA
ATOM     22  C25 UNK     0       6.254  -0.667   0.043  0.00  0.00    +0.000 C 
ATOM     23  C23 UNK     0       4.906  -0.218   0.668  0.00  0.00    +0.000 C 
BRANCH  23  24
ATOM     24  O4  UNK     0       5.088   0.923   1.464  0.00  0.00    +0.000 OA
ATOM     25  H55 UNK     0       5.479   0.607   2.319  0.00  0.00    +0.000 HD
ENDBRANCH  23  24
ENDBRANCH  16  17
ENDBRANCH   4  16
BRANCH   3  26
ATOM     26  C17 UNK     0      -3.695   1.047  -0.913  0.00  0.00    +0.000 C 
BRANCH  26  27
ATOM     27  O2  UNK     0      -5.085   1.261  -0.963  0.00  0.00    +0.000 OA
ATOM     28  H51 UNK     0      -5.452   0.651  -1.655  0.00  0.00    +0.000 HD
ENDBRANCH  26  27
ENDBRANCH   3  26
TORSDOF 6
