REMARK  Name = C:\Users\Maximilian\Desktop\Conformers\converted_pdb\conformers_pdb\Andrographolide_conf_12.pdb
REMARK  8 active torsions:
REMARK  status: ('A' for Active; 'I' for Inactive)
REMARK    1  A    between atoms: C6_1  and  C14_9
REMARK    2  A    between atoms: C8_3  and  C18_12
REMARK    3  A    between atoms: C8_3  and  C17_24
REMARK    4  A    between atoms: C9_4  and  C19_14
REMARK    5  A    between atoms: C11_6  and  O1_27
REMARK    6  A    between atoms: C19_14  and  C21_15
REMARK    7  A    between atoms: C23_21  and  O4_22
REMARK    8  A    between atoms: C17_24  and  O2_25
REMARK                            x       y       z     vdW  Elec       q    Type
REMARK                         _______ _______ _______ _____ _____    ______ ____
ROOT
ATOM      1  C6  UNK     0      -0.706  -0.488  -0.256  0.00  0.00    +0.000 C 
ATOM      2  C7  UNK     0      -1.791   0.636  -0.036  0.00  0.00    +0.000 C 
ATOM      3  C8  UNK     0      -3.324   0.231  -0.291  0.00  0.00    +0.000 C 
ATOM      4  C9  UNK     0       0.637   0.247  -0.656  0.00  0.00    +0.000 C 
ATOM      5  C10 UNK     0      -1.176  -1.393  -1.422  0.00  0.00    +0.000 C 
ATOM      6  C11 UNK     0      -3.549  -1.320  -0.317  0.00  0.00    +0.000 C 
ATOM      7  C12 UNK     0      -1.468   1.422   1.263  0.00  0.00    +0.000 C 
ATOM      8  C13 UNK     0      -2.506  -2.116  -1.146  0.00  0.00    +0.000 C 
ATOM      9  C14 UNK     0      -0.465  -1.369   1.008  0.00  0.00    +0.000 C 
ATOM     10  C15 UNK     0       0.019   1.854   1.378  0.00  0.00    +0.000 C 
ATOM     11  C16 UNK     0       0.876   1.519   0.166  0.00  0.00    +0.000 C 
ATOM     12  C18 UNK     0      -3.778   0.774  -1.682  0.00  0.00    +0.000 C 
ATOM     13  C20 UNK     0       1.847   2.373  -0.201  0.00  0.00    +0.000 C 
ENDROOT
BRANCH   6  14
ATOM     14  O1  UNK     0      -3.632  -1.831   0.991  0.00  0.00    +0.000 OA
ATOM     15  H47 UNK     0      -4.085  -2.714   0.936  0.00  0.00    +0.000 HD
ENDBRANCH   6  14
BRANCH   4  16
ATOM     16  C19 UNK     0       1.910  -0.657  -0.744  0.00  0.00    +0.000 C 
BRANCH  16  17
ATOM     17  C21 UNK     0       2.733  -0.700   0.525  0.00  0.00    +0.000 C 
ATOM     18  C22 UNK     0       4.049  -0.439   0.568  0.00  0.00    +0.000 C 
ATOM     19  C24 UNK     0       4.861  -0.463   1.761  0.00  0.00    +0.000 C 
ATOM     20  O3  UNK     0       6.163  -0.113   1.481  0.00  0.00    +0.000 OA
ATOM     21  O5  UNK     0       4.455  -0.759   2.917  0.00  0.00    +0.000 OA
ATOM     22  C25 UNK     0       6.331   0.192   0.099  0.00  0.00    +0.000 C 
ATOM     23  C23 UNK     0       4.953  -0.060  -0.572  0.00  0.00    +0.000 C 
BRANCH  23  24
ATOM     24  O4  UNK     0       5.030  -1.086  -1.530  0.00  0.00    +0.000 OA
ATOM     25  H55 UNK     0       5.318  -1.915  -1.064  0.00  0.00    +0.000 HD
ENDBRANCH  23  24
ENDBRANCH  16  17
ENDBRANCH   4  16
BRANCH   3  26
ATOM     26  C17 UNK     0      -4.311   0.837   0.763  0.00  0.00    +0.000 C 
BRANCH  26  27
ATOM     27  O2  UNK     0      -4.389   2.238   0.673  0.00  0.00    +0.000 OA
ATOM     28  H51 UNK     0      -5.178   2.455   0.111  0.00  0.00    +0.000 HD
ENDBRANCH  26  27
ENDBRANCH   3  26
TORSDOF 6
