REMARK  Name = C:\Users\Maximilian\Desktop\Conformers\converted_pdb\conformers_pdb\Andrographolide_conf_19.pdb
REMARK  8 active torsions:
REMARK  status: ('A' for Active; 'I' for Inactive)
REMARK    1  A    between atoms: C6_1  and  C14_9
REMARK    2  A    between atoms: C8_3  and  C18_12
REMARK    3  A    between atoms: C8_3  and  C17_24
REMARK    4  A    between atoms: C9_4  and  C19_14
REMARK    5  A    between atoms: C11_6  and  O1_27
REMARK    6  A    between atoms: C19_14  and  C21_15
REMARK    7  A    between atoms: C23_21  and  O4_22
REMARK    8  A    between atoms: C17_24  and  O2_25
REMARK                            x       y       z     vdW  Elec       q    Type
REMARK                         _______ _______ _______ _____ _____    ______ ____
ROOT
ATOM      1  C6  UNK     0      -0.787  -0.202   0.342  0.00  0.00    +0.000 C 
ATOM      2  C7  UNK     0      -1.937   0.490  -0.512  0.00  0.00    +0.000 C 
ATOM      3  C8  UNK     0      -3.437  -0.019  -0.277  0.00  0.00    +0.000 C 
ATOM      4  C9  UNK     0       0.609   0.251  -0.261  0.00  0.00    +0.000 C 
ATOM      5  C10 UNK     0      -0.910  -1.772   0.209  0.00  0.00    +0.000 C 
ATOM      6  C11 UNK     0      -3.464  -1.528   0.200  0.00  0.00    +0.000 C 
ATOM      7  C12 UNK     0      -1.788   2.038  -0.550  0.00  0.00    +0.000 C 
ATOM      8  C13 UNK     0      -2.255  -2.309  -0.313  0.00  0.00    +0.000 C 
ATOM      9  C14 UNK     0      -0.829   0.237   1.850  0.00  0.00    +0.000 C 
ATOM     10  C15 UNK     0      -0.421   2.464  -1.094  0.00  0.00    +0.000 C 
ATOM     11  C16 UNK     0       0.672   1.783  -0.313  0.00  0.00    +0.000 C 
ATOM     12  C18 UNK     0      -4.176   0.025  -1.653  0.00  0.00    +0.000 C 
ATOM     13  C20 UNK     0       1.569   2.534   0.363  0.00  0.00    +0.000 C 
ENDROOT
BRANCH   6  14
ATOM     14  O1  UNK     0      -3.613  -1.717   1.588  0.00  0.00    +0.000 OA
ATOM     15  H47 UNK     0      -3.021  -1.063   2.049  0.00  0.00    +0.000 HD
ENDBRANCH   6  14
BRANCH   4  16
ATOM     16  C19 UNK     0       1.845  -0.428   0.415  0.00  0.00    +0.000 C 
BRANCH  16  17
ATOM     17  C21 UNK     0       3.118  -0.193  -0.361  0.00  0.00    +0.000 C 
ATOM     18  C22 UNK     0       4.304  -0.706   0.003  0.00  0.00    +0.000 C 
ATOM     19  C24 UNK     0       4.609  -1.538   1.150  0.00  0.00    +0.000 C 
ATOM     20  O3  UNK     0       5.937  -1.896   1.152  0.00  0.00    +0.000 OA
ATOM     21  O5  UNK     0       3.794  -1.911   2.036  0.00  0.00    +0.000 OA
ATOM     22  C25 UNK     0       6.617  -1.366   0.020  0.00  0.00    +0.000 C 
ATOM     23  C23 UNK     0       5.580  -0.508  -0.753  0.00  0.00    +0.000 C 
BRANCH  23  24
ATOM     24  O4  UNK     0       5.434  -0.962  -2.073  0.00  0.00    +0.000 OA
ATOM     25  H55 UNK     0       6.245  -0.651  -2.559  0.00  0.00    +0.000 HD
ENDBRANCH  23  24
ENDBRANCH  16  17
ENDBRANCH   4  16
BRANCH   3  26
ATOM     26  C17 UNK     0      -4.280   0.861   0.708  0.00  0.00    +0.000 C 
BRANCH  26  27
ATOM     27  O2  UNK     0      -4.621   2.099   0.140  0.00  0.00    +0.000 OA
ATOM     28  H51 UNK     0      -5.169   2.579   0.815  0.00  0.00    +0.000 HD
ENDBRANCH  26  27
ENDBRANCH   3  26
TORSDOF 6
