REMARK  Name = C:\Users\Maximilian\Desktop\Conformers\converted_pdb\conformers_pdb\Andrographolide_conf_65.pdb
REMARK  8 active torsions:
REMARK  status: ('A' for Active; 'I' for Inactive)
REMARK    1  A    between atoms: C6_1  and  C14_9
REMARK    2  A    between atoms: C8_3  and  C18_12
REMARK    3  A    between atoms: C8_3  and  C17_24
REMARK    4  A    between atoms: C9_4  and  C19_14
REMARK    5  A    between atoms: C11_6  and  O1_27
REMARK    6  A    between atoms: C19_14  and  C21_15
REMARK    7  A    between atoms: C23_21  and  O4_22
REMARK    8  A    between atoms: C17_24  and  O2_25
REMARK                            x       y       z     vdW  Elec       q    Type
REMARK                         _______ _______ _______ _____ _____    ______ ____
ROOT
ATOM      1  C6  UNK     0      -0.376  -0.211   0.054  0.00  0.00    +0.000 C 
ATOM      2  C7  UNK     0      -1.882  -0.147  -0.429  0.00  0.00    +0.000 C 
ATOM      3  C8  UNK     0      -2.921   0.650   0.491  0.00  0.00    +0.000 C 
ATOM      4  C9  UNK     0       0.360  -1.375  -0.760  0.00  0.00    +0.000 C 
ATOM      5  C10 UNK     0      -0.288  -0.542   1.596  0.00  0.00    +0.000 C 
ATOM      6  C11 UNK     0      -2.452   0.693   1.989  0.00  0.00    +0.000 C 
ATOM      7  C12 UNK     0      -1.992   0.215  -1.942  0.00  0.00    +0.000 C 
ATOM      8  C13 UNK     0      -1.624  -0.542   2.343  0.00  0.00    +0.000 C 
ATOM      9  C14 UNK     0       0.316   1.162  -0.191  0.00  0.00    +0.000 C 
ATOM     10  C15 UNK     0      -0.958  -0.478  -2.847  0.00  0.00    +0.000 C 
ATOM     11  C16 UNK     0      -0.226  -1.593  -2.151  0.00  0.00    +0.000 C 
ATOM     12  C18 UNK     0      -4.279  -0.109   0.441  0.00  0.00    +0.000 C 
ATOM     13  C20 UNK     0      -0.064  -2.774  -2.775  0.00  0.00    +0.000 C 
ENDROOT
BRANCH   6  14
ATOM     14  O1  UNK     0      -1.706   1.855   2.263  0.00  0.00    +0.000 OA
ATOM     15  H47 UNK     0      -1.667   1.952   3.251  0.00  0.00    +0.000 HD
ENDBRANCH   6  14
BRANCH   4  16
ATOM     16  C19 UNK     0       1.905  -1.245  -0.884  0.00  0.00    +0.000 C 
BRANCH  16  17
ATOM     17  C21 UNK     0       2.610  -1.316   0.445  0.00  0.00    +0.000 C 
ATOM     18  C22 UNK     0       3.695  -0.586   0.743  0.00  0.00    +0.000 C 
ATOM     19  C24 UNK     0       4.419  -0.649   1.989  0.00  0.00    +0.000 C 
ATOM     20  O3  UNK     0       5.475   0.234   1.989  0.00  0.00    +0.000 OA
ATOM     21  O5  UNK     0       4.140  -1.399   2.961  0.00  0.00    +0.000 OA
ATOM     22  C25 UNK     0       5.539   0.959   0.765  0.00  0.00    +0.000 C 
ATOM     23  C23 UNK     0       4.382   0.426  -0.123  0.00  0.00    +0.000 C 
BRANCH  23  24
ATOM     24  O4  UNK     0       4.888  -0.197  -1.274  0.00  0.00    +0.000 OA
ATOM     25  H55 UNK     0       5.152   0.533  -1.893  0.00  0.00    +0.000 HD
ENDBRANCH  23  24
ENDBRANCH  16  17
ENDBRANCH   4  16
BRANCH   3  26
ATOM     26  C17 UNK     0      -3.212   2.099  -0.016  0.00  0.00    +0.000 C 
BRANCH  26  27
ATOM     27  O2  UNK     0      -4.029   2.791   0.892  0.00  0.00    +0.000 OA
ATOM     28  H51 UNK     0      -4.162   3.699   0.512  0.00  0.00    +0.000 HD
ENDBRANCH  26  27
ENDBRANCH   3  26
TORSDOF 6
