REMARK  Name = C:\Users\Maximilian\Desktop\Conformers\converted_pdb\conformers_pdb\Andrographolide_conf_9.pdb
REMARK  8 active torsions:
REMARK  status: ('A' for Active; 'I' for Inactive)
REMARK    1  A    between atoms: C6_1  and  C14_9
REMARK    2  A    between atoms: C8_3  and  C18_12
REMARK    3  A    between atoms: C8_3  and  C17_24
REMARK    4  A    between atoms: C9_4  and  C19_14
REMARK    5  A    between atoms: C11_6  and  O1_27
REMARK    6  A    between atoms: C19_14  and  C21_15
REMARK    7  A    between atoms: C23_21  and  O4_22
REMARK    8  A    between atoms: C17_24  and  O2_25
REMARK                            x       y       z     vdW  Elec       q    Type
REMARK                         _______ _______ _______ _____ _____    ______ ____
ROOT
ATOM      1  C6  UNK     0      -0.470  -0.043   0.826  0.00  0.00    +0.000 C 
ATOM      2  C7  UNK     0      -1.400   0.620  -0.283  0.00  0.00    +0.000 C 
ATOM      3  C8  UNK     0      -2.850   0.002  -0.478  0.00  0.00    +0.000 C 
ATOM      4  C9  UNK     0       0.995   0.506   0.574  0.00  0.00    +0.000 C 
ATOM      5  C10 UNK     0      -0.490  -1.585   0.648  0.00  0.00    +0.000 C 
ATOM      6  C11 UNK     0      -2.712  -1.555  -0.581  0.00  0.00    +0.000 C 
ATOM      7  C12 UNK     0      -1.354   2.181  -0.231  0.00  0.00    +0.000 C 
ATOM      8  C13 UNK     0      -1.900  -2.178   0.569  0.00  0.00    +0.000 C 
ATOM      9  C14 UNK     0      -0.911   0.311   2.280  0.00  0.00    +0.000 C 
ATOM     10  C15 UNK     0       0.083   2.715  -0.345  0.00  0.00    +0.000 C 
ATOM     11  C16 UNK     0       0.957   2.027   0.670  0.00  0.00    +0.000 C 
ATOM     12  C18 UNK     0      -3.422   0.499  -1.841  0.00  0.00    +0.000 C 
ATOM     13  C20 UNK     0       1.424   2.716   1.729  0.00  0.00    +0.000 C 
ENDROOT
BRANCH   6  14
ATOM     14  O1  UNK     0      -3.964  -2.189  -0.709  0.00  0.00    +0.000 OA
ATOM     15  H47 UNK     0      -4.378  -2.245   0.191  0.00  0.00    +0.000 HD
ENDBRANCH   6  14
BRANCH   4  16
ATOM     16  C19 UNK     0       2.165  -0.148   1.378  0.00  0.00    +0.000 C 
BRANCH  16  17
ATOM     17  C21 UNK     0       2.674  -1.419   0.746  0.00  0.00    +0.000 C 
ATOM     18  C22 UNK     0       3.597  -1.449  -0.229  0.00  0.00    +0.000 C 
ATOM     19  C24 UNK     0       4.128  -2.652  -0.824  0.00  0.00    +0.000 C 
ATOM     20  O3  UNK     0       5.137  -2.359  -1.712  0.00  0.00    +0.000 OA
ATOM     21  O5  UNK     0       3.738  -3.824  -0.578  0.00  0.00    +0.000 OA
ATOM     22  C25 UNK     0       5.378  -0.957  -1.772  0.00  0.00    +0.000 C 
ATOM     23  C23 UNK     0       4.346  -0.291  -0.823  0.00  0.00    +0.000 C 
BRANCH  23  24
ATOM     24  O4  UNK     0       3.473   0.532  -1.547  0.00  0.00    +0.000 OA
ATOM     25  H55 UNK     0       3.965   1.377  -1.722  0.00  0.00    +0.000 HD
ENDBRANCH  23  24
ENDBRANCH  16  17
ENDBRANCH   4  16
BRANCH   3  26
ATOM     26  C17 UNK     0      -3.855   0.417   0.647  0.00  0.00    +0.000 C 
BRANCH  26  27
ATOM     27  O2  UNK     0      -5.185   0.215   0.243  0.00  0.00    +0.000 OA
ATOM     28  H51 UNK     0      -5.757   0.517   0.997  0.00  0.00    +0.000 HD
ENDBRANCH  26  27
ENDBRANCH   3  26
TORSDOF 6
