REMARK  Name = C:\Users\Maximilian\Desktop\Conformers\converted_pdb\conformers_pdb\Andrographolide_conf_48.pdb
REMARK  8 active torsions:
REMARK  status: ('A' for Active; 'I' for Inactive)
REMARK    1  A    between atoms: C6_1  and  C14_9
REMARK    2  A    between atoms: C8_3  and  C18_12
REMARK    3  A    between atoms: C8_3  and  C17_24
REMARK    4  A    between atoms: C9_4  and  C19_14
REMARK    5  A    between atoms: C11_6  and  O1_27
REMARK    6  A    between atoms: C19_14  and  C21_15
REMARK    7  A    between atoms: C23_21  and  O4_22
REMARK    8  A    between atoms: C17_24  and  O2_25
REMARK                            x       y       z     vdW  Elec       q    Type
REMARK                         _______ _______ _______ _____ _____    ______ ____
ROOT
ATOM      1  C6  UNK     0      -0.687   0.186   0.735  0.00  0.00    +0.000 C 
ATOM      2  C7  UNK     0      -1.581   0.090  -0.577  0.00  0.00    +0.000 C 
ATOM      3  C8  UNK     0      -3.032  -0.547  -0.431  0.00  0.00    +0.000 C 
ATOM      4  C9  UNK     0       0.796   0.482   0.263  0.00  0.00    +0.000 C 
ATOM      5  C10 UNK     0      -0.736  -1.178   1.480  0.00  0.00    +0.000 C 
ATOM      6  C11 UNK     0      -2.906  -1.880   0.378  0.00  0.00    +0.000 C 
ATOM      7  C12 UNK     0      -1.503   1.393  -1.430  0.00  0.00    +0.000 C 
ATOM      8  C13 UNK     0      -2.157  -1.702   1.705  0.00  0.00    +0.000 C 
ATOM      9  C14 UNK     0      -1.137   1.314   1.710  0.00  0.00    +0.000 C 
ATOM     10  C15 UNK     0      -0.055   1.720  -1.820  0.00  0.00    +0.000 C 
ATOM     11  C16 UNK     0       0.800   1.759  -0.581  0.00  0.00    +0.000 C 
ATOM     12  C18 UNK     0      -3.567  -0.937  -1.841  0.00  0.00    +0.000 C 
ATOM     13  C20 UNK     0       1.329   2.929  -0.176  0.00  0.00    +0.000 C 
ENDROOT
BRANCH   6  14
ATOM     14  O1  UNK     0      -4.176  -2.430   0.632  0.00  0.00    +0.000 OA
ATOM     15  H47 UNK     0      -4.042  -3.392   0.837  0.00  0.00    +0.000 HD
ENDBRANCH   6  14
BRANCH   4  16
ATOM     16  C19 UNK     0       1.886   0.431   1.378  0.00  0.00    +0.000 C 
BRANCH  16  17
ATOM     17  C21 UNK     0       3.278   0.564   0.813  0.00  0.00    +0.000 C 
ATOM     18  C22 UNK     0       3.947  -0.417   0.185  0.00  0.00    +0.000 C 
ATOM     19  C24 UNK     0       3.550  -1.795  -0.034  0.00  0.00    +0.000 C 
ATOM     20  O3  UNK     0       4.536  -2.484  -0.703  0.00  0.00    +0.000 OA
ATOM     21  O5  UNK     0       2.478  -2.332   0.349  0.00  0.00    +0.000 OA
ATOM     22  C25 UNK     0       5.656  -1.650  -0.979  0.00  0.00    +0.000 C 
ATOM     23  C23 UNK     0       5.316  -0.253  -0.396  0.00  0.00    +0.000 C 
BRANCH  23  24
ATOM     24  O4  UNK     0       5.290   0.718  -1.407  0.00  0.00    +0.000 OA
ATOM     25  H55 UNK     0       6.237   0.918  -1.626  0.00  0.00    +0.000 HD
ENDBRANCH  23  24
ENDBRANCH  16  17
ENDBRANCH   4  16
BRANCH   3  26
ATOM     26  C17 UNK     0      -4.109   0.380   0.219  0.00  0.00    +0.000 C 
BRANCH  26  27
ATOM     27  O2  UNK     0      -4.216   1.605  -0.451  0.00  0.00    +0.000 OA
ATOM     28  H51 UNK     0      -4.909   2.127   0.030  0.00  0.00    +0.000 HD
ENDBRANCH  26  27
ENDBRANCH   3  26
TORSDOF 6
