REMARK  Name = C:\Users\Maximilian\Desktop\Conformers\converted_pdb\conformers_pdb\Andrographolide_conf_28.pdb
REMARK  8 active torsions:
REMARK  status: ('A' for Active; 'I' for Inactive)
REMARK    1  A    between atoms: C6_1  and  C14_9
REMARK    2  A    between atoms: C8_3  and  C18_12
REMARK    3  A    between atoms: C8_3  and  C17_24
REMARK    4  A    between atoms: C9_4  and  C19_14
REMARK    5  A    between atoms: C11_6  and  O1_27
REMARK    6  A    between atoms: C19_14  and  C21_15
REMARK    7  A    between atoms: C23_21  and  O4_22
REMARK    8  A    between atoms: C17_24  and  O2_25
REMARK                            x       y       z     vdW  Elec       q    Type
REMARK                         _______ _______ _______ _____ _____    ______ ____
ROOT
ATOM      1  C6  UNK     0      -0.504  -0.288  -0.101  0.00  0.00    +0.000 C 
ATOM      2  C7  UNK     0      -1.917  -0.054   0.557  0.00  0.00    +0.000 C 
ATOM      3  C8  UNK     0      -2.847   1.058  -0.134  0.00  0.00    +0.000 C 
ATOM      4  C9  UNK     0       0.361  -1.205   0.868  0.00  0.00    +0.000 C 
ATOM      5  C10 UNK     0       0.179   1.106  -0.226  0.00  0.00    +0.000 C 
ATOM      6  C11 UNK     0      -2.097   1.897  -1.236  0.00  0.00    +0.000 C 
ATOM      7  C12 UNK     0      -2.631  -1.398   0.899  0.00  0.00    +0.000 C 
ATOM      8  C13 UNK     0      -0.639   2.234  -0.879  0.00  0.00    +0.000 C 
ATOM      9  C14 UNK     0      -0.613  -0.985  -1.493  0.00  0.00    +0.000 C 
ATOM     10  C15 UNK     0      -1.770  -2.310   1.782  0.00  0.00    +0.000 C 
ATOM     11  C16 UNK     0      -0.415  -2.493   1.146  0.00  0.00    +0.000 C 
ATOM     12  C18 UNK     0      -3.305   2.048   0.979  0.00  0.00    +0.000 C 
ATOM     13  C20 UNK     0      -0.037  -3.720   0.734  0.00  0.00    +0.000 C 
ENDROOT
BRANCH   6  14
ATOM     14  O1  UNK     0      -2.166   1.275  -2.496  0.00  0.00    +0.000 OA
ATOM     15  H47 UNK     0      -1.782   1.895  -3.168  0.00  0.00    +0.000 HD
ENDBRANCH   6  14
BRANCH   4  16
ATOM     16  C19 UNK     0       1.840  -1.445   0.422  0.00  0.00    +0.000 C 
BRANCH  16  17
ATOM     17  C21 UNK     0       2.765  -0.307   0.780  0.00  0.00    +0.000 C 
ATOM     18  C22 UNK     0       4.006  -0.170   0.283  0.00  0.00    +0.000 C 
ATOM     19  C24 UNK     0       4.723  -1.054  -0.607  0.00  0.00    +0.000 C 
ATOM     20  O3  UNK     0       5.982  -0.562  -0.873  0.00  0.00    +0.000 OA
ATOM     21  O5  UNK     0       4.299  -2.145  -1.074  0.00  0.00    +0.000 OA
ATOM     22  C25 UNK     0       6.198   0.683  -0.214  0.00  0.00    +0.000 C 
ATOM     23  C23 UNK     0       4.922   0.962   0.622  0.00  0.00    +0.000 C 
BRANCH  23  24
ATOM     24  O4  UNK     0       4.337   2.180   0.251  0.00  0.00    +0.000 OA
ATOM     25  H55 UNK     0       4.756   2.878   0.818  0.00  0.00    +0.000 HD
ENDBRANCH  23  24
ENDBRANCH  16  17
ENDBRANCH   4  16
BRANCH   3  26
ATOM     26  C17 UNK     0      -4.152   0.453  -0.760  0.00  0.00    +0.000 C 
BRANCH  26  27
ATOM     27  O2  UNK     0      -4.894   1.434  -1.450  0.00  0.00    +0.000 OA
ATOM     28  H51 UNK     0      -5.704   1.630  -0.911  0.00  0.00    +0.000 HD
ENDBRANCH  26  27
ENDBRANCH   3  26
TORSDOF 6
