REMARK  Name = C:\Users\Maximilian\Desktop\Conformers\converted_pdb\conformers_pdb\Andrographolide_conf_51.pdb
REMARK  8 active torsions:
REMARK  status: ('A' for Active; 'I' for Inactive)
REMARK    1  A    between atoms: C6_1  and  C14_9
REMARK    2  A    between atoms: C8_3  and  C18_12
REMARK    3  A    between atoms: C8_3  and  C17_24
REMARK    4  A    between atoms: C9_4  and  C19_14
REMARK    5  A    between atoms: C11_6  and  O1_27
REMARK    6  A    between atoms: C19_14  and  C21_15
REMARK    7  A    between atoms: C23_21  and  O4_22
REMARK    8  A    between atoms: C17_24  and  O2_25
REMARK                            x       y       z     vdW  Elec       q    Type
REMARK                         _______ _______ _______ _____ _____    ______ ____
ROOT
ATOM      1  C6  UNK     0      -0.512   0.552   0.637  0.00  0.00    +0.000 C 
ATOM      2  C7  UNK     0      -1.401  -0.081  -0.498  0.00  0.00    +0.000 C 
ATOM      3  C8  UNK     0      -2.611  -0.989  -0.031  0.00  0.00    +0.000 C 
ATOM      4  C9  UNK     0       0.720   1.221  -0.099  0.00  0.00    +0.000 C 
ATOM      5  C10 UNK     0      -0.052  -0.605   1.572  0.00  0.00    +0.000 C 
ATOM      6  C11 UNK     0      -2.083  -2.055   0.993  0.00  0.00    +0.000 C 
ATOM      7  C12 UNK     0      -1.712   0.869  -1.707  0.00  0.00    +0.000 C 
ATOM      8  C13 UNK     0      -1.199  -1.474   2.109  0.00  0.00    +0.000 C 
ATOM      9  C14 UNK     0      -1.267   1.632   1.477  0.00  0.00    +0.000 C 
ATOM     10  C15 UNK     0      -1.071   2.273  -1.703  0.00  0.00    +0.000 C 
ATOM     11  C16 UNK     0       0.193   2.428  -0.885  0.00  0.00    +0.000 C 
ATOM     12  C18 UNK     0      -3.122  -1.784  -1.270  0.00  0.00    +0.000 C 
ATOM     13  C20 UNK     0       0.697   3.676  -0.788  0.00  0.00    +0.000 C 
ENDROOT
BRANCH   6  14
ATOM     14  O1  UNK     0      -3.153  -2.750   1.586  0.00  0.00    +0.000 OA
ATOM     15  H47 UNK     0      -3.284  -3.592   1.076  0.00  0.00    +0.000 HD
ENDBRANCH   6  14
BRANCH   4  16
ATOM     16  C19 UNK     0       1.975   1.523   0.790  0.00  0.00    +0.000 C 
BRANCH  16  17
ATOM     17  C21 UNK     0       2.804   0.303   1.105  0.00  0.00    +0.000 C 
ATOM     18  C22 UNK     0       3.581  -0.341   0.220  0.00  0.00    +0.000 C 
ATOM     19  C24 UNK     0       3.841  -0.020  -1.171  0.00  0.00    +0.000 C 
ATOM     20  O3  UNK     0       4.671  -0.960  -1.742  0.00  0.00    +0.000 OA
ATOM     21  O5  UNK     0       3.419   0.990  -1.793  0.00  0.00    +0.000 OA
ATOM     22  C25 UNK     0       5.022  -1.979  -0.812  0.00  0.00    +0.000 C 
ATOM     23  C23 UNK     0       4.365  -1.580   0.536  0.00  0.00    +0.000 C 
BRANCH  23  24
ATOM     24  O4  UNK     0       5.330  -1.335   1.530  0.00  0.00    +0.000 OA
ATOM     25  H55 UNK     0       5.912  -0.595   1.212  0.00  0.00    +0.000 HD
ENDBRANCH  23  24
ENDBRANCH  16  17
ENDBRANCH   4  16
BRANCH   3  26
ATOM     26  C17 UNK     0      -3.840  -0.181   0.521  0.00  0.00    +0.000 C 
BRANCH  26  27
ATOM     27  O2  UNK     0      -3.751   0.074   1.893  0.00  0.00    +0.000 OA
ATOM     28  H51 UNK     0      -4.558   0.600   2.135  0.00  0.00    +0.000 HD
ENDBRANCH  26  27
ENDBRANCH   3  26
TORSDOF 6
