REMARK  Name = C:\Users\Maximilian\Desktop\Conformers\converted_pdb\conformers_pdb\Andrographolide_conf_43.pdb
REMARK  8 active torsions:
REMARK  status: ('A' for Active; 'I' for Inactive)
REMARK    1  A    between atoms: C6_1  and  C14_9
REMARK    2  A    between atoms: C8_3  and  C18_12
REMARK    3  A    between atoms: C8_3  and  C17_24
REMARK    4  A    between atoms: C9_4  and  C19_14
REMARK    5  A    between atoms: C11_6  and  O1_27
REMARK    6  A    between atoms: C19_14  and  C21_15
REMARK    7  A    between atoms: C23_21  and  O4_22
REMARK    8  A    between atoms: C17_24  and  O2_25
REMARK                            x       y       z     vdW  Elec       q    Type
REMARK                         _______ _______ _______ _____ _____    ______ ____
ROOT
ATOM      1  C6  UNK     0      -0.569  -0.240  -0.163  0.00  0.00    +0.000 C 
ATOM      2  C7  UNK     0      -1.854   0.459   0.435  0.00  0.00    +0.000 C 
ATOM      3  C8  UNK     0      -3.172  -0.418   0.454  0.00  0.00    +0.000 C 
ATOM      4  C9  UNK     0       0.350   0.921  -0.723  0.00  0.00    +0.000 C 
ATOM      5  C10 UNK     0      -0.988  -1.220  -1.312  0.00  0.00    +0.000 C 
ATOM      6  C11 UNK     0      -3.506  -0.860  -1.031  0.00  0.00    +0.000 C 
ATOM      7  C12 UNK     0      -1.511   1.240   1.727  0.00  0.00    +0.000 C 
ATOM      8  C13 UNK     0      -2.298  -0.824  -1.996  0.00  0.00    +0.000 C 
ATOM      9  C14 UNK     0       0.216  -1.066   0.902  0.00  0.00    +0.000 C 
ATOM     10  C15 UNK     0      -0.258   2.140   1.573  0.00  0.00    +0.000 C 
ATOM     11  C16 UNK     0       0.342   2.168   0.173  0.00  0.00    +0.000 C 
ATOM     12  C18 UNK     0      -4.354   0.454   0.963  0.00  0.00    +0.000 C 
ATOM     13  C20 UNK     0       0.881   3.313  -0.281  0.00  0.00    +0.000 C 
ENDROOT
BRANCH   6  14
ATOM     14  O1  UNK     0      -4.085  -2.141  -1.078  0.00  0.00    +0.000 OA
ATOM     15  H47 UNK     0      -5.048  -2.033  -0.863  0.00  0.00    +0.000 HD
ENDBRANCH   6  14
BRANCH   4  16
ATOM     16  C19 UNK     0       1.798   0.497  -1.127  0.00  0.00    +0.000 C 
BRANCH  16  17
ATOM     17  C21 UNK     0       2.803   0.508   0.001  0.00  0.00    +0.000 C 
ATOM     18  C22 UNK     0       4.082   0.157  -0.182  0.00  0.00    +0.000 C 
ATOM     19  C24 UNK     0       5.109   0.179   0.832  0.00  0.00    +0.000 C 
ATOM     20  O3  UNK     0       6.330  -0.179   0.303  0.00  0.00    +0.000 OA
ATOM     21  O5  UNK     0       4.937   0.484   2.041  0.00  0.00    +0.000 OA
ATOM     22  C25 UNK     0       6.232  -0.444  -1.093  0.00  0.00    +0.000 C 
ATOM     23  C23 UNK     0       4.730  -0.292  -1.461  0.00  0.00    +0.000 C 
BRANCH  23  24
ATOM     24  O4  UNK     0       4.189  -1.508  -1.915  0.00  0.00    +0.000 OA
ATOM     25  H55 UNK     0       4.273  -2.171  -1.180  0.00  0.00    +0.000 HD
ENDBRANCH  23  24
ENDBRANCH  16  17
ENDBRANCH   4  16
BRANCH   3  26
ATOM     26  C17 UNK     0      -3.042  -1.652   1.403  0.00  0.00    +0.000 C 
BRANCH  26  27
ATOM     27  O2  UNK     0      -4.298  -2.209   1.692  0.00  0.00    +0.000 OA
ATOM     28  H51 UNK     0      -4.129  -2.978   2.298  0.00  0.00    +0.000 HD
ENDBRANCH  26  27
ENDBRANCH   3  26
TORSDOF 6
