REMARK  Name = C:\Users\Maximilian\Desktop\Conformers\converted_pdb\conformers_pdb\Andrographolide_conf_71.pdb
REMARK  8 active torsions:
REMARK  status: ('A' for Active; 'I' for Inactive)
REMARK    1  A    between atoms: C6_1  and  C14_9
REMARK    2  A    between atoms: C8_3  and  C18_12
REMARK    3  A    between atoms: C8_3  and  C17_24
REMARK    4  A    between atoms: C9_4  and  C19_14
REMARK    5  A    between atoms: C11_6  and  O1_27
REMARK    6  A    between atoms: C19_14  and  C21_15
REMARK    7  A    between atoms: C23_21  and  O4_22
REMARK    8  A    between atoms: C17_24  and  O2_25
REMARK                            x       y       z     vdW  Elec       q    Type
REMARK                         _______ _______ _______ _____ _____    ______ ____
ROOT
ATOM      1  C6  UNK     0      -0.645   0.428   0.067  0.00  0.00    +0.000 C 
ATOM      2  C7  UNK     0      -1.929  -0.271  -0.564  0.00  0.00    +0.000 C 
ATOM      3  C8  UNK     0      -3.315   0.067   0.119  0.00  0.00    +0.000 C 
ATOM      4  C9  UNK     0       0.591  -0.473  -0.357  0.00  0.00    +0.000 C 
ATOM      5  C10 UNK     0      -0.849   0.550   1.620  0.00  0.00    +0.000 C 
ATOM      6  C11 UNK     0      -3.236  -0.342   1.652  0.00  0.00    +0.000 C 
ATOM      7  C12 UNK     0      -1.874  -0.266  -2.112  0.00  0.00    +0.000 C 
ATOM      8  C13 UNK     0      -1.797  -0.501   2.196  0.00  0.00    +0.000 C 
ATOM      9  C14 UNK     0      -0.390   1.871  -0.475  0.00  0.00    +0.000 C 
ATOM     10  C15 UNK     0      -0.640  -1.051  -2.591  0.00  0.00    +0.000 C 
ATOM     11  C16 UNK     0       0.616  -0.561  -1.902  0.00  0.00    +0.000 C 
ATOM     12  C18 UNK     0      -4.437  -0.793  -0.530  0.00  0.00    +0.000 C 
ATOM     13  C20 UNK     0       1.631  -0.106  -2.667  0.00  0.00    +0.000 C 
ENDROOT
BRANCH   6  14
ATOM     14  O1  UNK     0      -3.935   0.563   2.472  0.00  0.00    +0.000 OA
ATOM     15  H47 UNK     0      -4.896   0.319   2.419  0.00  0.00    +0.000 HD
ENDBRANCH   6  14
BRANCH   4  16
ATOM     16  C19 UNK     0       1.965  -0.079   0.271  0.00  0.00    +0.000 C 
BRANCH  16  17
ATOM     17  C21 UNK     0       3.040  -1.091  -0.041  0.00  0.00    +0.000 C 
ATOM     18  C22 UNK     0       4.309  -0.934   0.360  0.00  0.00    +0.000 C 
ATOM     19  C24 UNK     0       5.378  -1.875   0.131  0.00  0.00    +0.000 C 
ATOM     20  O3  UNK     0       6.543  -1.446   0.727  0.00  0.00    +0.000 OA
ATOM     21  O5  UNK     0       5.284  -2.949  -0.519  0.00  0.00    +0.000 OA
ATOM     22  C25 UNK     0       6.347  -0.212   1.410  0.00  0.00    +0.000 C 
ATOM     23  C23 UNK     0       4.874   0.206   1.151  0.00  0.00    +0.000 C 
BRANCH  23  24
ATOM     24  O4  UNK     0       4.822   1.384   0.392  0.00  0.00    +0.000 OA
ATOM     25  H55 UNK     0       5.015   2.129   1.019  0.00  0.00    +0.000 HD
ENDBRANCH  23  24
ENDBRANCH  16  17
ENDBRANCH   4  16
BRANCH   3  26
ATOM     26  C17 UNK     0      -3.692   1.572  -0.063  0.00  0.00    +0.000 C 
BRANCH  26  27
ATOM     27  O2  UNK     0      -5.051   1.810   0.209  0.00  0.00    +0.000 OA
ATOM     28  H51 UNK     0      -5.531   1.807  -0.660  0.00  0.00    +0.000 HD
ENDBRANCH  26  27
ENDBRANCH   3  26
TORSDOF 6
