REMARK  Name = C:\Users\Maximilian\Desktop\Conformers\converted_pdb\conformers_pdb\Andrographolide_conf_53.pdb
REMARK  8 active torsions:
REMARK  status: ('A' for Active; 'I' for Inactive)
REMARK    1  A    between atoms: C6_1  and  C14_9
REMARK    2  A    between atoms: C8_3  and  C18_12
REMARK    3  A    between atoms: C8_3  and  C17_24
REMARK    4  A    between atoms: C9_4  and  C19_14
REMARK    5  A    between atoms: C11_6  and  O1_27
REMARK    6  A    between atoms: C19_14  and  C21_15
REMARK    7  A    between atoms: C23_21  and  O4_22
REMARK    8  A    between atoms: C17_24  and  O2_25
REMARK                            x       y       z     vdW  Elec       q    Type
REMARK                         _______ _______ _______ _____ _____    ______ ____
ROOT
ATOM      1  C6  UNK     0      -0.603  -0.065   0.741  0.00  0.00    +0.000 C 
ATOM      2  C7  UNK     0      -1.699   0.432  -0.287  0.00  0.00    +0.000 C 
ATOM      3  C8  UNK     0      -3.165   0.746   0.261  0.00  0.00    +0.000 C 
ATOM      4  C9  UNK     0       0.537  -0.808  -0.090  0.00  0.00    +0.000 C 
ATOM      5  C10 UNK     0      -1.227  -1.097   1.728  0.00  0.00    +0.000 C 
ATOM      6  C11 UNK     0      -3.590  -0.389   1.249  0.00  0.00    +0.000 C 
ATOM      7  C12 UNK     0      -1.115   1.522  -1.237  0.00  0.00    +0.000 C 
ATOM      8  C13 UNK     0      -2.543  -0.631   2.344  0.00  0.00    +0.000 C 
ATOM      9  C14 UNK     0      -0.001   1.113   1.567  0.00  0.00    +0.000 C 
ATOM     10  C15 UNK     0       0.311   1.221  -1.749  0.00  0.00    +0.000 C 
ATOM     11  C16 UNK     0       0.742  -0.199  -1.478  0.00  0.00    +0.000 C 
ATOM     12  C18 UNK     0      -4.152   0.702  -0.942  0.00  0.00    +0.000 C 
ATOM     13  C20 UNK     0       1.234  -0.943  -2.485  0.00  0.00    +0.000 C 
ENDROOT
BRANCH   6  14
ATOM     14  O1  UNK     0      -4.832  -0.102   1.845  0.00  0.00    +0.000 OA
ATOM     15  H47 UNK     0      -5.197  -0.961   2.186  0.00  0.00    +0.000 HD
ENDBRANCH   6  14
BRANCH   4  16
ATOM     16  C19 UNK     0       1.886  -0.936   0.671  0.00  0.00    +0.000 C 
BRANCH  16  17
ATOM     17  C21 UNK     0       2.797  -1.966   0.056  0.00  0.00    +0.000 C 
ATOM     18  C22 UNK     0       3.995  -1.680  -0.476  0.00  0.00    +0.000 C 
ATOM     19  C24 UNK     0       4.890  -2.646  -1.065  0.00  0.00    +0.000 C 
ATOM     20  O3  UNK     0       6.057  -2.046  -1.480  0.00  0.00    +0.000 OA
ATOM     21  O5  UNK     0       4.658  -3.877  -1.194  0.00  0.00    +0.000 OA
ATOM     22  C25 UNK     0       6.047  -0.651  -1.195  0.00  0.00    +0.000 C 
ATOM     23  C23 UNK     0       4.667  -0.342  -0.554  0.00  0.00    +0.000 C 
BRANCH  23  24
ATOM     24  O4  UNK     0       3.925   0.520  -1.374  0.00  0.00    +0.000 OA
ATOM     25  H55 UNK     0       4.285   1.432  -1.220  0.00  0.00    +0.000 HD
ENDBRANCH  23  24
ENDBRANCH  16  17
ENDBRANCH   4  16
BRANCH   3  26
ATOM     26  C17 UNK     0      -3.314   2.157   0.930  0.00  0.00    +0.000 C 
BRANCH  26  27
ATOM     27  O2  UNK     0      -4.662   2.463   1.177  0.00  0.00    +0.000 OA
ATOM     28  H51 UNK     0      -4.676   3.366   1.589  0.00  0.00    +0.000 HD
ENDBRANCH  26  27
ENDBRANCH   3  26
TORSDOF 6
