REMARK  Name = C:\Users\Maximilian\Desktop\Conformers\converted_pdb\conformers_pdb\Andrographolide_conf_16.pdb
REMARK  8 active torsions:
REMARK  status: ('A' for Active; 'I' for Inactive)
REMARK    1  A    between atoms: C6_1  and  C14_9
REMARK    2  A    between atoms: C8_3  and  C18_12
REMARK    3  A    between atoms: C8_3  and  C17_24
REMARK    4  A    between atoms: C9_4  and  C19_14
REMARK    5  A    between atoms: C11_6  and  O1_27
REMARK    6  A    between atoms: C19_14  and  C21_15
REMARK    7  A    between atoms: C23_21  and  O4_22
REMARK    8  A    between atoms: C17_24  and  O2_25
REMARK                            x       y       z     vdW  Elec       q    Type
REMARK                         _______ _______ _______ _____ _____    ______ ____
ROOT
ATOM      1  C6  UNK     0      -0.482   0.100   0.338  0.00  0.00    +0.000 C 
ATOM      2  C7  UNK     0      -1.846   0.646  -0.270  0.00  0.00    +0.000 C 
ATOM      3  C8  UNK     0      -2.761  -0.427  -0.987  0.00  0.00    +0.000 C 
ATOM      4  C9  UNK     0       0.483   1.361   0.404  0.00  0.00    +0.000 C 
ATOM      5  C10 UNK     0       0.051  -1.066  -0.559  0.00  0.00    +0.000 C 
ATOM      6  C11 UNK     0      -1.927  -1.076  -2.173  0.00  0.00    +0.000 C 
ATOM      7  C12 UNK     0      -2.515   1.689   0.666  0.00  0.00    +0.000 C 
ATOM      8  C13 UNK     0      -0.387  -0.955  -2.018  0.00  0.00    +0.000 C 
ATOM      9  C14 UNK     0      -0.644  -0.483   1.779  0.00  0.00    +0.000 C 
ATOM     10  C15 UNK     0      -1.568   2.887   0.887  0.00  0.00    +0.000 C 
ATOM     11  C16 UNK     0      -0.190   2.414   1.305  0.00  0.00    +0.000 C 
ATOM     12  C18 UNK     0      -3.999   0.266  -1.622  0.00  0.00    +0.000 C 
ATOM     13  C20 UNK     0       0.279   2.765   2.520  0.00  0.00    +0.000 C 
ENDROOT
BRANCH   6  14
ATOM     14  O1  UNK     0      -2.282  -2.426  -2.359  0.00  0.00    +0.000 OA
ATOM     15  H47 UNK     0      -2.026  -2.674  -3.287  0.00  0.00    +0.000 HD
ENDBRANCH   6  14
BRANCH   4  16
ATOM     16  C19 UNK     0       1.977   1.096   0.767  0.00  0.00    +0.000 C 
BRANCH  16  17
ATOM     17  C21 UNK     0       2.807   0.683  -0.424  0.00  0.00    +0.000 C 
ATOM     18  C22 UNK     0       3.753  -0.265  -0.369  0.00  0.00    +0.000 C 
ATOM     19  C24 UNK     0       4.579  -0.685  -1.475  0.00  0.00    +0.000 C 
ATOM     20  O3  UNK     0       5.412  -1.718  -1.105  0.00  0.00    +0.000 OA
ATOM     21  O5  UNK     0       4.560  -0.189  -2.633  0.00  0.00    +0.000 OA
ATOM     22  C25 UNK     0       5.203  -2.090   0.255  0.00  0.00    +0.000 C 
ATOM     23  C23 UNK     0       4.130  -1.115   0.812  0.00  0.00    +0.000 C 
BRANCH  23  24
ATOM     24  O4  UNK     0       4.643  -0.334   1.864  0.00  0.00    +0.000 OA
ATOM     25  H55 UNK     0       5.404   0.195   1.507  0.00  0.00    +0.000 HD
ENDBRANCH  23  24
ENDBRANCH  16  17
ENDBRANCH   4  16
BRANCH   3  26
ATOM     26  C17 UNK     0      -3.308  -1.523  -0.024  0.00  0.00    +0.000 C 
BRANCH  26  27
ATOM     27  O2  UNK     0      -3.886  -0.959   1.121  0.00  0.00    +0.000 OA
ATOM     28  H51 UNK     0      -4.172  -1.719   1.691  0.00  0.00    +0.000 HD
ENDBRANCH  26  27
ENDBRANCH   3  26
TORSDOF 6
