REMARK  Name = C:\Users\Maximilian\Desktop\Conformers\converted_pdb\conformers_pdb\Andrographolide_conf_21.pdb
REMARK  8 active torsions:
REMARK  status: ('A' for Active; 'I' for Inactive)
REMARK    1  A    between atoms: C6_1  and  C14_9
REMARK    2  A    between atoms: C8_3  and  C18_12
REMARK    3  A    between atoms: C8_3  and  C17_24
REMARK    4  A    between atoms: C9_4  and  C19_14
REMARK    5  A    between atoms: C11_6  and  O1_27
REMARK    6  A    between atoms: C19_14  and  C21_15
REMARK    7  A    between atoms: C23_21  and  O4_22
REMARK    8  A    between atoms: C17_24  and  O2_25
REMARK                            x       y       z     vdW  Elec       q    Type
REMARK                         _______ _______ _______ _____ _____    ______ ____
ROOT
ATOM      1  C6  UNK     0      -0.673  -0.310   0.700  0.00  0.00    +0.000 C 
ATOM      2  C7  UNK     0      -1.765   0.262  -0.291  0.00  0.00    +0.000 C 
ATOM      3  C8  UNK     0      -3.280   0.146   0.171  0.00  0.00    +0.000 C 
ATOM      4  C9  UNK     0       0.805  -0.135   0.072  0.00  0.00    +0.000 C 
ATOM      5  C10 UNK     0      -0.983  -1.838   0.914  0.00  0.00    +0.000 C 
ATOM      6  C11 UNK     0      -3.510  -1.205   0.966  0.00  0.00    +0.000 C 
ATOM      7  C12 UNK     0      -1.318   1.619  -0.884  0.00  0.00    +0.000 C 
ATOM      8  C13 UNK     0      -2.444  -2.274   0.642  0.00  0.00    +0.000 C 
ATOM      9  C14 UNK     0      -0.733   0.380   2.096  0.00  0.00    +0.000 C 
ATOM     10  C15 UNK     0      -0.118   1.418  -1.829  0.00  0.00    +0.000 C 
ATOM     11  C16 UNK     0       0.747   0.250  -1.404  0.00  0.00    +0.000 C 
ATOM     12  C18 UNK     0      -4.178   0.073  -1.102  0.00  0.00    +0.000 C 
ATOM     13  C20 UNK     0       1.516  -0.376  -2.311  0.00  0.00    +0.000 C 
ENDROOT
BRANCH   6  14
ATOM     14  O1  UNK     0      -3.586  -1.005   2.356  0.00  0.00    +0.000 OA
ATOM     15  H47 UNK     0      -3.980  -1.825   2.754  0.00  0.00    +0.000 HD
ENDBRANCH   6  14
BRANCH   4  16
ATOM     16  C19 UNK     0       1.748   0.888   0.784  0.00  0.00    +0.000 C 
BRANCH  16  17
ATOM     17  C21 UNK     0       3.115   0.958   0.149  0.00  0.00    +0.000 C 
ATOM     18  C22 UNK     0       4.080   0.039   0.314  0.00  0.00    +0.000 C 
ATOM     19  C24 UNK     0       4.078  -1.137   1.162  0.00  0.00    +0.000 C 
ATOM     20  O3  UNK     0       5.281  -1.801   1.074  0.00  0.00    +0.000 OA
ATOM     21  O5  UNK     0       3.140  -1.516   1.912  0.00  0.00    +0.000 OA
ATOM     22  C25 UNK     0       6.179  -1.132   0.195  0.00  0.00    +0.000 C 
ATOM     23  C23 UNK     0       5.414   0.092  -0.367  0.00  0.00    +0.000 C 
BRANCH  23  24
ATOM     24  O4  UNK     0       5.259  -0.034  -1.756  0.00  0.00    +0.000 OA
ATOM     25  H55 UNK     0       5.034   0.869  -2.102  0.00  0.00    +0.000 HD
ENDBRANCH  23  24
ENDBRANCH  16  17
ENDBRANCH   4  16
BRANCH   3  26
ATOM     26  C17 UNK     0      -3.772   1.371   1.010  0.00  0.00    +0.000 C 
BRANCH  26  27
ATOM     27  O2  UNK     0      -3.874   2.533   0.232  0.00  0.00    +0.000 OA
ATOM     28  H51 UNK     0      -4.204   3.247   0.836  0.00  0.00    +0.000 HD
ENDBRANCH  26  27
ENDBRANCH   3  26
TORSDOF 6
