REMARK  Name = C:\Users\Maximilian\Desktop\Conformers\converted_pdb\conformers_pdb\Andrographolide_conf_34.pdb
REMARK  8 active torsions:
REMARK  status: ('A' for Active; 'I' for Inactive)
REMARK    1  A    between atoms: C6_1  and  C14_9
REMARK    2  A    between atoms: C8_3  and  C18_12
REMARK    3  A    between atoms: C8_3  and  C17_24
REMARK    4  A    between atoms: C9_4  and  C19_14
REMARK    5  A    between atoms: C11_6  and  O1_27
REMARK    6  A    between atoms: C19_14  and  C21_15
REMARK    7  A    between atoms: C23_21  and  O4_22
REMARK    8  A    between atoms: C17_24  and  O2_25
REMARK                            x       y       z     vdW  Elec       q    Type
REMARK                         _______ _______ _______ _____ _____    ______ ____
ROOT
ATOM      1  C6  UNK     0      -0.352   0.046   0.028  0.00  0.00    +0.000 C 
ATOM      2  C7  UNK     0      -1.739  -0.108   0.775  0.00  0.00    +0.000 C 
ATOM      3  C8  UNK     0      -2.934   0.773   0.221  0.00  0.00    +0.000 C 
ATOM      4  C9  UNK     0       0.789  -0.292   1.089  0.00  0.00    +0.000 C 
ATOM      5  C10 UNK     0      -0.217   1.513  -0.508  0.00  0.00    +0.000 C 
ATOM      6  C11 UNK     0      -2.511   2.297   0.326  0.00  0.00    +0.000 C 
ATOM      7  C12 UNK     0      -2.031  -1.592   1.117  0.00  0.00    +0.000 C 
ATOM      8  C13 UNK     0      -0.980   2.538   0.333  0.00  0.00    +0.000 C 
ATOM      9  C14 UNK     0      -0.241  -0.911  -1.197  0.00  0.00    +0.000 C 
ATOM     10  C15 UNK     0      -0.811  -2.306   1.749  0.00  0.00    +0.000 C 
ATOM     11  C16 UNK     0       0.336  -1.367   2.086  0.00  0.00    +0.000 C 
ATOM     12  C18 UNK     0      -4.188   0.578   1.116  0.00  0.00    +0.000 C 
ATOM     13  C20 UNK     0       0.951  -1.477   3.277  0.00  0.00    +0.000 C 
ENDROOT
BRANCH   6  14
ATOM     14  O1  UNK     0      -3.108   3.061  -0.696  0.00  0.00    +0.000 OA
ATOM     15  H47 UNK     0      -3.121   4.005  -0.389  0.00  0.00    +0.000 HD
ENDBRANCH   6  14
BRANCH   4  16
ATOM     16  C19 UNK     0       2.175  -0.718   0.512  0.00  0.00    +0.000 C 
BRANCH  16  17
ATOM     17  C21 UNK     0       2.902   0.400  -0.181  0.00  0.00    +0.000 C 
ATOM     18  C22 UNK     0       3.611   0.236  -1.306  0.00  0.00    +0.000 C 
ATOM     19  C24 UNK     0       4.346   1.276  -1.985  0.00  0.00    +0.000 C 
ATOM     20  O3  UNK     0       4.957   0.790  -3.120  0.00  0.00    +0.000 OA
ATOM     21  O5  UNK     0       4.430   2.476  -1.611  0.00  0.00    +0.000 OA
ATOM     22  C25 UNK     0       4.675  -0.594  -3.307  0.00  0.00    +0.000 C 
ATOM     23  C23 UNK     0       3.809  -1.030  -2.093  0.00  0.00    +0.000 C 
BRANCH  23  24
ATOM     24  O4  UNK     0       4.457  -2.015  -1.327  0.00  0.00    +0.000 OA
ATOM     25  H55 UNK     0       5.309  -1.628  -0.993  0.00  0.00    +0.000 HD
ENDBRANCH  23  24
ENDBRANCH  16  17
ENDBRANCH   4  16
BRANCH   3  26
ATOM     26  C17 UNK     0      -3.365   0.424  -1.239  0.00  0.00    +0.000 C 
BRANCH  26  27
ATOM     27  O2  UNK     0      -3.657  -0.938  -1.384  0.00  0.00    +0.000 OA
ATOM     28  H51 UNK     0      -3.890  -1.073  -2.339  0.00  0.00    +0.000 HD
ENDBRANCH  26  27
ENDBRANCH   3  26
TORSDOF 6
