REMARK  Name = C:\Users\Maximilian\Desktop\Conformers\converted_pdb\conformers_pdb\Andrographolide_conf_13.pdb
REMARK  8 active torsions:
REMARK  status: ('A' for Active; 'I' for Inactive)
REMARK    1  A    between atoms: C6_1  and  C14_9
REMARK    2  A    between atoms: C8_3  and  C18_12
REMARK    3  A    between atoms: C8_3  and  C17_24
REMARK    4  A    between atoms: C9_4  and  C19_14
REMARK    5  A    between atoms: C11_6  and  O1_27
REMARK    6  A    between atoms: C19_14  and  C21_15
REMARK    7  A    between atoms: C23_21  and  O4_22
REMARK    8  A    between atoms: C17_24  and  O2_25
REMARK                            x       y       z     vdW  Elec       q    Type
REMARK                         _______ _______ _______ _____ _____    ______ ____
ROOT
ATOM      1  C6  UNK     0      -0.433   0.429   0.288  0.00  0.00    +0.000 C 
ATOM      2  C7  UNK     0      -1.634   0.101  -0.692  0.00  0.00    +0.000 C 
ATOM      3  C8  UNK     0      -2.857  -0.786  -0.169  0.00  0.00    +0.000 C 
ATOM      4  C9  UNK     0       0.837   0.770  -0.617  0.00  0.00    +0.000 C 
ATOM      5  C10 UNK     0      -0.113  -0.827   1.152  0.00  0.00    +0.000 C 
ATOM      6  C11 UNK     0      -2.349  -1.919   0.784  0.00  0.00    +0.000 C 
ATOM      7  C12 UNK     0      -2.061   1.374  -1.474  0.00  0.00    +0.000 C 
ATOM      8  C13 UNK     0      -1.343  -1.425   1.829  0.00  0.00    +0.000 C 
ATOM      9  C14 UNK     0      -0.750   1.624   1.235  0.00  0.00    +0.000 C 
ATOM     10  C15 UNK     0      -0.879   2.179  -2.055  0.00  0.00    +0.000 C 
ATOM     11  C16 UNK     0       0.455   1.478  -1.918  0.00  0.00    +0.000 C 
ATOM     12  C18 UNK     0      -3.483  -1.510  -1.401  0.00  0.00    +0.000 C 
ATOM     13  C20 UNK     0       1.307   1.474  -2.959  0.00  0.00    +0.000 C 
ENDROOT
BRANCH   6  14
ATOM     14  O1  UNK     0      -3.431  -2.543   1.432  0.00  0.00    +0.000 OA
ATOM     15  H47 UNK     0      -3.112  -3.430   1.745  0.00  0.00    +0.000 HD
ENDBRANCH   6  14
BRANCH   4  16
ATOM     16  C19 UNK     0       1.991   1.563   0.067  0.00  0.00    +0.000 C 
BRANCH  16  17
ATOM     17  C21 UNK     0       2.662   0.816   1.187  0.00  0.00    +0.000 C 
ATOM     18  C22 UNK     0       3.669  -0.054   1.011  0.00  0.00    +0.000 C 
ATOM     19  C24 UNK     0       4.364  -0.736   2.078  0.00  0.00    +0.000 C 
ATOM     20  O3  UNK     0       5.439  -1.447   1.593  0.00  0.00    +0.000 OA
ATOM     21  O5  UNK     0       4.051  -0.697   3.297  0.00  0.00    +0.000 OA
ATOM     22  C25 UNK     0       5.578  -1.279   0.185  0.00  0.00    +0.000 C 
ATOM     23  C23 UNK     0       4.367  -0.419  -0.271  0.00  0.00    +0.000 C 
BRANCH  23  24
ATOM     24  O4  UNK     0       3.529  -1.147  -1.132  0.00  0.00    +0.000 OA
ATOM     25  H55 UNK     0       3.188  -1.934  -0.630  0.00  0.00    +0.000 HD
ENDBRANCH  23  24
ENDBRANCH  16  17
ENDBRANCH   4  16
BRANCH   3  26
ATOM     26  C17 UNK     0      -4.043   0.018   0.470  0.00  0.00    +0.000 C 
BRANCH  26  27
ATOM     27  O2  UNK     0      -3.753   0.495   1.750  0.00  0.00    +0.000 OA
ATOM     28  H51 UNK     0      -4.547   1.014   2.043  0.00  0.00    +0.000 HD
ENDBRANCH  26  27
ENDBRANCH   3  26
TORSDOF 6
