REMARK  Name = C:\Users\Maximilian\Desktop\Conformers\converted_pdb\conformers_pdb\Andrographolide_conf_70.pdb
REMARK  8 active torsions:
REMARK  status: ('A' for Active; 'I' for Inactive)
REMARK    1  A    between atoms: C6_1  and  C14_9
REMARK    2  A    between atoms: C8_3  and  C18_12
REMARK    3  A    between atoms: C8_3  and  C17_24
REMARK    4  A    between atoms: C9_4  and  C19_14
REMARK    5  A    between atoms: C11_6  and  O1_27
REMARK    6  A    between atoms: C19_14  and  C21_15
REMARK    7  A    between atoms: C23_21  and  O4_22
REMARK    8  A    between atoms: C17_24  and  O2_25
REMARK                            x       y       z     vdW  Elec       q    Type
REMARK                         _______ _______ _______ _____ _____    ______ ____
ROOT
ATOM      1  C6  UNK     0      -0.732   0.444   0.619  0.00  0.00    +0.000 C 
ATOM      2  C7  UNK     0      -1.767  -0.240  -0.362  0.00  0.00    +0.000 C 
ATOM      3  C8  UNK     0      -3.327  -0.193  -0.012  0.00  0.00    +0.000 C 
ATOM      4  C9  UNK     0       0.687  -0.238   0.377  0.00  0.00    +0.000 C 
ATOM      5  C10 UNK     0      -1.154   0.181   2.092  0.00  0.00    +0.000 C 
ATOM      6  C11 UNK     0      -3.554  -0.326   1.535  0.00  0.00    +0.000 C 
ATOM      7  C12 UNK     0      -1.424   0.110  -1.839  0.00  0.00    +0.000 C 
ATOM      8  C13 UNK     0      -2.610   0.547   2.367  0.00  0.00    +0.000 C 
ATOM      9  C14 UNK     0      -0.634   1.985   0.393  0.00  0.00    +0.000 C 
ATOM     10  C15 UNK     0       0.082   0.008  -2.176  0.00  0.00    +0.000 C 
ATOM     11  C16 UNK     0       0.887  -0.657  -1.082  0.00  0.00    +0.000 C 
ATOM     12  C18 UNK     0      -3.991  -1.446  -0.662  0.00  0.00    +0.000 C 
ATOM     13  C20 UNK     0       1.691  -1.690  -1.391  0.00  0.00    +0.000 C 
ENDROOT
BRANCH   6  14
ATOM     14  O1  UNK     0      -4.879  -0.005   1.886  0.00  0.00    +0.000 OA
ATOM     15  H47 UNK     0      -5.407  -0.845   1.855  0.00  0.00    +0.000 HD
ENDBRANCH   6  14
BRANCH   4  16
ATOM     16  C19 UNK     0       1.887   0.603   0.899  0.00  0.00    +0.000 C 
BRANCH  16  17
ATOM     17  C21 UNK     0       3.154  -0.200   1.030  0.00  0.00    +0.000 C 
ATOM     18  C22 UNK     0       4.169  -0.200   0.148  0.00  0.00    +0.000 C 
ATOM     19  C24 UNK     0       4.295   0.509  -1.113  0.00  0.00    +0.000 C 
ATOM     20  O3  UNK     0       5.484   0.191  -1.734  0.00  0.00    +0.000 OA
ATOM     21  O5  UNK     0       3.451   1.293  -1.619  0.00  0.00    +0.000 OA
ATOM     22  C25 UNK     0       6.236  -0.749  -0.975  0.00  0.00    +0.000 C 
ATOM     23  C23 UNK     0       5.407  -1.032   0.306  0.00  0.00    +0.000 C 
BRANCH  23  24
ATOM     24  O4  UNK     0       6.116  -0.682   1.469  0.00  0.00    +0.000 OA
ATOM     25  H55 UNK     0       6.316   0.291   1.421  0.00  0.00    +0.000 HD
ENDBRANCH  23  24
ENDBRANCH  16  17
ENDBRANCH   4  16
BRANCH   3  26
ATOM     26  C17 UNK     0      -4.109   1.031  -0.603  0.00  0.00    +0.000 C 
BRANCH  26  27
ATOM     27  O2  UNK     0      -3.863   2.220   0.086  0.00  0.00    +0.000 OA
ATOM     28  H51 UNK     0      -4.371   2.930  -0.387  0.00  0.00    +0.000 HD
ENDBRANCH  26  27
ENDBRANCH   3  26
TORSDOF 6
