REMARK  Name = C:\Users\Maximilian\Desktop\Conformers\converted_pdb\conformers_pdb\Andrographolide_conf_20.pdb
REMARK  8 active torsions:
REMARK  status: ('A' for Active; 'I' for Inactive)
REMARK    1  A    between atoms: C6_1  and  C14_9
REMARK    2  A    between atoms: C8_3  and  C18_12
REMARK    3  A    between atoms: C8_3  and  C17_24
REMARK    4  A    between atoms: C9_4  and  C19_14
REMARK    5  A    between atoms: C11_6  and  O1_27
REMARK    6  A    between atoms: C19_14  and  C21_15
REMARK    7  A    between atoms: C23_21  and  O4_22
REMARK    8  A    between atoms: C17_24  and  O2_25
REMARK                            x       y       z     vdW  Elec       q    Type
REMARK                         _______ _______ _______ _____ _____    ______ ____
ROOT
ATOM      1  C6  UNK     0      -0.710   0.090  -0.032  0.00  0.00    +0.000 C 
ATOM      2  C7  UNK     0      -1.630  -1.017   0.644  0.00  0.00    +0.000 C 
ATOM      3  C8  UNK     0      -3.145  -0.634   0.949  0.00  0.00    +0.000 C 
ATOM      4  C9  UNK     0       0.792  -0.385   0.138  0.00  0.00    +0.000 C 
ATOM      5  C10 UNK     0      -0.917   1.441   0.710  0.00  0.00    +0.000 C 
ATOM      6  C11 UNK     0      -3.170   0.768   1.646  0.00  0.00    +0.000 C 
ATOM      7  C12 UNK     0      -1.408  -2.419   0.000  0.00  0.00    +0.000 C 
ATOM      8  C13 UNK     0      -2.389   1.830   0.868  0.00  0.00    +0.000 C 
ATOM      9  C14 UNK     0      -1.000   0.294  -1.549  0.00  0.00    +0.000 C 
ATOM     10  C15 UNK     0       0.060  -2.853   0.099  0.00  0.00    +0.000 C 
ATOM     11  C16 UNK     0       0.945  -1.779  -0.478  0.00  0.00    +0.000 C 
ATOM     12  C18 UNK     0      -3.733  -1.650   1.972  0.00  0.00    +0.000 C 
ATOM     13  C20 UNK     0       1.683  -2.045  -1.574  0.00  0.00    +0.000 C 
ENDROOT
BRANCH   6  14
ATOM     14  O1  UNK     0      -4.490   1.227   1.818  0.00  0.00    +0.000 OA
ATOM     15  H47 UNK     0      -4.753   1.038   2.757  0.00  0.00    +0.000 HD
ENDBRANCH   6  14
BRANCH   4  16
ATOM     16  C19 UNK     0       1.874   0.644  -0.306  0.00  0.00    +0.000 C 
BRANCH  16  17
ATOM     17  C21 UNK     0       3.265   0.200   0.071  0.00  0.00    +0.000 C 
ATOM     18  C22 UNK     0       4.351   0.929  -0.221  0.00  0.00    +0.000 C 
ATOM     19  C24 UNK     0       5.706   0.587   0.137  0.00  0.00    +0.000 C 
ATOM     20  O3  UNK     0       6.580   1.576  -0.254  0.00  0.00    +0.000 OA
ATOM     21  O5  UNK     0       6.065  -0.464   0.731  0.00  0.00    +0.000 OA
ATOM     22  C25 UNK     0       5.890   2.654  -0.880  0.00  0.00    +0.000 C 
ATOM     23  C23 UNK     0       4.392   2.247  -0.932  0.00  0.00    +0.000 C 
BRANCH  23  24
ATOM     24  O4  UNK     0       3.971   2.086  -2.260  0.00  0.00    +0.000 OA
ATOM     25  H55 UNK     0       3.825   3.000  -2.619  0.00  0.00    +0.000 HD
ENDBRANCH  23  24
ENDBRANCH  16  17
ENDBRANCH   4  16
BRANCH   3  26
ATOM     26  C17 UNK     0      -4.099  -0.638  -0.288  0.00  0.00    +0.000 C 
BRANCH  26  27
ATOM     27  O2  UNK     0      -4.067  -1.861  -0.970  0.00  0.00    +0.000 OA
ATOM     28  H51 UNK     0      -4.686  -1.770  -1.740  0.00  0.00    +0.000 HD
ENDBRANCH  26  27
ENDBRANCH   3  26
TORSDOF 6
