REMARK  Name = C:\Users\Maximilian\Desktop\Conformers\converted_pdb\conformers_pdb\Andrographolide_conf_15.pdb
REMARK  8 active torsions:
REMARK  status: ('A' for Active; 'I' for Inactive)
REMARK    1  A    between atoms: C6_1  and  C14_9
REMARK    2  A    between atoms: C8_3  and  C18_12
REMARK    3  A    between atoms: C8_3  and  C17_24
REMARK    4  A    between atoms: C9_4  and  C19_14
REMARK    5  A    between atoms: C11_6  and  O1_27
REMARK    6  A    between atoms: C19_14  and  C21_15
REMARK    7  A    between atoms: C23_21  and  O4_22
REMARK    8  A    between atoms: C17_24  and  O2_25
REMARK                            x       y       z     vdW  Elec       q    Type
REMARK                         _______ _______ _______ _____ _____    ______ ____
ROOT
ATOM      1  C6  UNK     0      -0.660   0.432   0.276  0.00  0.00    +0.000 C 
ATOM      2  C7  UNK     0      -1.902   0.146  -0.662  0.00  0.00    +0.000 C 
ATOM      3  C8  UNK     0      -3.354   0.590  -0.158  0.00  0.00    +0.000 C 
ATOM      4  C9  UNK     0       0.520  -0.555  -0.153  0.00  0.00    +0.000 C 
ATOM      5  C10 UNK     0      -1.025   0.118   1.760  0.00  0.00    +0.000 C 
ATOM      6  C11 UNK     0      -3.502   0.190   1.346  0.00  0.00    +0.000 C 
ATOM      7  C12 UNK     0      -1.577   0.499  -2.147  0.00  0.00    +0.000 C 
ATOM      8  C13 UNK     0      -2.349   0.730   2.205  0.00  0.00    +0.000 C 
ATOM      9  C14 UNK     0      -0.201   1.921   0.178  0.00  0.00    +0.000 C 
ATOM     10  C15 UNK     0      -0.159   0.096  -2.604  0.00  0.00    +0.000 C 
ATOM     11  C16 UNK     0       0.495  -0.873  -1.652  0.00  0.00    +0.000 C 
ATOM     12  C18 UNK     0      -4.424  -0.223  -0.941  0.00  0.00    +0.000 C 
ATOM     13  C20 UNK     0       0.953  -2.048  -2.121  0.00  0.00    +0.000 C 
ENDROOT
BRANCH   6  14
ATOM     14  O1  UNK     0      -4.728   0.644   1.869  0.00  0.00    +0.000 OA
ATOM     15  H47 UNK     0      -4.901   0.126   2.696  0.00  0.00    +0.000 HD
ENDBRANCH   6  14
BRANCH   4  16
ATOM     16  C19 UNK     0       1.931  -0.067   0.288  0.00  0.00    +0.000 C 
BRANCH  16  17
ATOM     17  C21 UNK     0       2.964  -1.162   0.351  0.00  0.00    +0.000 C 
ATOM     18  C22 UNK     0       4.264  -0.929   0.565  0.00  0.00    +0.000 C 
ATOM     19  C24 UNK     0       4.932   0.345   0.743  0.00  0.00    +0.000 C 
ATOM     20  O3  UNK     0       6.298   0.172   0.836  0.00  0.00    +0.000 OA
ATOM     21  O5  UNK     0       4.374   1.472   0.823  0.00  0.00    +0.000 OA
ATOM     22  C25 UNK     0       6.659  -1.199   0.704  0.00  0.00    +0.000 C 
ATOM     23  C23 UNK     0       5.325  -1.989   0.596  0.00  0.00    +0.000 C 
BRANCH  23  24
ATOM     24  O4  UNK     0       5.148  -2.855   1.690  0.00  0.00    +0.000 OA
ATOM     25  H55 UNK     0       5.144  -2.304   2.517  0.00  0.00    +0.000 HD
ENDBRANCH  23  24
ENDBRANCH  16  17
ENDBRANCH   4  16
BRANCH   3  26
ATOM     26  C17 UNK     0      -3.723   2.107  -0.330  0.00  0.00    +0.000 C 
BRANCH  26  27
ATOM     27  O2  UNK     0      -3.661   2.543  -1.661  0.00  0.00    +0.000 OA
ATOM     28  H51 UNK     0      -4.559   2.420  -2.064  0.00  0.00    +0.000 HD
ENDBRANCH  26  27
ENDBRANCH   3  26
TORSDOF 6
