REMARK  Name = C:\Users\Maximilian\Desktop\Conformers\converted_pdb\conformers_pdb\Andrographolide_conf_68.pdb
REMARK  8 active torsions:
REMARK  status: ('A' for Active; 'I' for Inactive)
REMARK    1  A    between atoms: C6_1  and  C14_9
REMARK    2  A    between atoms: C8_3  and  C18_12
REMARK    3  A    between atoms: C8_3  and  C17_24
REMARK    4  A    between atoms: C9_4  and  C19_14
REMARK    5  A    between atoms: C11_6  and  O1_27
REMARK    6  A    between atoms: C19_14  and  C21_15
REMARK    7  A    between atoms: C23_21  and  O4_22
REMARK    8  A    between atoms: C17_24  and  O2_25
REMARK                            x       y       z     vdW  Elec       q    Type
REMARK                         _______ _______ _______ _____ _____    ______ ____
ROOT
ATOM      1  C6  UNK     0      -0.755   0.289  -0.303  0.00  0.00    +0.000 C 
ATOM      2  C7  UNK     0      -1.913  -0.440   0.501  0.00  0.00    +0.000 C 
ATOM      3  C8  UNK     0      -3.382   0.156   0.320  0.00  0.00    +0.000 C 
ATOM      4  C9  UNK     0       0.635  -0.311   0.164  0.00  0.00    +0.000 C 
ATOM      5  C10 UNK     0      -0.787   1.831   0.015  0.00  0.00    +0.000 C 
ATOM      6  C11 UNK     0      -3.336   1.705   0.030  0.00  0.00    +0.000 C 
ATOM      7  C12 UNK     0      -1.843  -1.987   0.378  0.00  0.00    +0.000 C 
ATOM      8  C13 UNK     0      -2.090   2.355   0.641  0.00  0.00    +0.000 C 
ATOM      9  C14 UNK     0      -0.891   0.072  -1.838  0.00  0.00    +0.000 C 
ATOM     10  C15 UNK     0      -0.487  -2.529   0.828  0.00  0.00    +0.000 C 
ATOM     11  C16 UNK     0       0.607  -1.840   0.060  0.00  0.00    +0.000 C 
ATOM     12  C18 UNK     0      -4.151  -0.028   1.662  0.00  0.00    +0.000 C 
ATOM     13  C20 UNK     0       1.421  -2.569  -0.729  0.00  0.00    +0.000 C 
ENDROOT
BRANCH   6  14
ATOM     14  O1  UNK     0      -3.390   1.989  -1.347  0.00  0.00    +0.000 OA
ATOM     15  H47 UNK     0      -3.615   2.952  -1.441  0.00  0.00    +0.000 HD
ENDBRANCH   6  14
BRANCH   4  16
ATOM     16  C19 UNK     0       1.879   0.355  -0.504  0.00  0.00    +0.000 C 
BRANCH  16  17
ATOM     17  C21 UNK     0       3.161  -0.013   0.199  0.00  0.00    +0.000 C 
ATOM     18  C22 UNK     0       4.367   0.419  -0.198  0.00  0.00    +0.000 C 
ATOM     19  C24 UNK     0       4.687   1.271  -1.326  0.00  0.00    +0.000 C 
ATOM     20  O3  UNK     0       6.048   1.444  -1.432  0.00  0.00    +0.000 OA
ATOM     21  O5  UNK     0       3.861   1.800  -2.116  0.00  0.00    +0.000 OA
ATOM     22  C25 UNK     0       6.742   0.725  -0.418  0.00  0.00    +0.000 C 
ATOM     23  C23 UNK     0       5.660   0.054   0.465  0.00  0.00    +0.000 C 
BRANCH  23  24
ATOM     24  O4  UNK     0       5.707   0.578   1.766  0.00  0.00    +0.000 OA
ATOM     25  H55 UNK     0       5.225  -0.064   2.350  0.00  0.00    +0.000 HD
ENDBRANCH  23  24
ENDBRANCH  16  17
ENDBRANCH   4  16
BRANCH   3  26
ATOM     26  C17 UNK     0      -4.215  -0.556  -0.801  0.00  0.00    +0.000 C 
BRANCH  26  27
ATOM     27  O2  UNK     0      -4.619  -1.852  -0.435  0.00  0.00    +0.000 OA
ATOM     28  H51 UNK     0      -5.528  -1.779  -0.043  0.00  0.00    +0.000 HD
ENDBRANCH  26  27
ENDBRANCH   3  26
TORSDOF 6
