REMARK  Name = C:\Users\Maximilian\Desktop\Conformers\converted_pdb\conformers_pdb\Andrographolide_conf_17.pdb
REMARK  8 active torsions:
REMARK  status: ('A' for Active; 'I' for Inactive)
REMARK    1  A    between atoms: C6_1  and  C14_9
REMARK    2  A    between atoms: C8_3  and  C18_12
REMARK    3  A    between atoms: C8_3  and  C17_24
REMARK    4  A    between atoms: C9_4  and  C19_14
REMARK    5  A    between atoms: C11_6  and  O1_27
REMARK    6  A    between atoms: C19_14  and  C21_15
REMARK    7  A    between atoms: C23_21  and  O4_22
REMARK    8  A    between atoms: C17_24  and  O2_25
REMARK                            x       y       z     vdW  Elec       q    Type
REMARK                         _______ _______ _______ _____ _____    ______ ____
ROOT
ATOM      1  C6  UNK     0      -0.490  -0.121   0.547  0.00  0.00    +0.000 C 
ATOM      2  C7  UNK     0      -1.074   1.209  -0.079  0.00  0.00    +0.000 C 
ATOM      3  C8  UNK     0      -2.529   1.113  -0.713  0.00  0.00    +0.000 C 
ATOM      4  C9  UNK     0       1.054   0.125   0.860  0.00  0.00    +0.000 C 
ATOM      5  C10 UNK     0      -0.633  -1.252  -0.528  0.00  0.00    +0.000 C 
ATOM      6  C11 UNK     0      -2.513  -0.065  -1.749  0.00  0.00    +0.000 C 
ATOM      7  C12 UNK     0      -0.794   2.503   0.752  0.00  0.00    +0.000 C 
ATOM      8  C13 UNK     0      -2.034  -1.388  -1.136  0.00  0.00    +0.000 C 
ATOM      9  C14 UNK     0      -1.243  -0.544   1.850  0.00  0.00    +0.000 C 
ATOM     10  C15 UNK     0       0.105   2.331   1.979  0.00  0.00    +0.000 C 
ATOM     11  C16 UNK     0       1.250   1.365   1.756  0.00  0.00    +0.000 C 
ATOM     12  C18 UNK     0      -2.827   2.409  -1.522  0.00  0.00    +0.000 C 
ATOM     13  C20 UNK     0       2.422   1.631   2.386  0.00  0.00    +0.000 C 
ENDROOT
BRANCH   6  14
ATOM     14  O1  UNK     0      -3.752  -0.229  -2.397  0.00  0.00    +0.000 OA
ATOM     15  H47 UNK     0      -4.370  -0.693  -1.770  0.00  0.00    +0.000 HD
ENDBRANCH   6  14
BRANCH   4  16
ATOM     16  C19 UNK     0       1.783  -1.145   1.439  0.00  0.00    +0.000 C 
BRANCH  16  17
ATOM     17  C21 UNK     0       3.239  -1.270   1.044  0.00  0.00    +0.000 C 
ATOM     18  C22 UNK     0       3.679  -1.666  -0.161  0.00  0.00    +0.000 C 
ATOM     19  C24 UNK     0       5.071  -1.859  -0.506  0.00  0.00    +0.000 C 
ATOM     20  O3  UNK     0       5.206  -2.235  -1.826  0.00  0.00    +0.000 OA
ATOM     21  O5  UNK     0       6.049  -1.686   0.267  0.00  0.00    +0.000 OA
ATOM     22  C25 UNK     0       3.937  -2.295  -2.476  0.00  0.00    +0.000 C 
ATOM     23  C23 UNK     0       2.876  -1.991  -1.385  0.00  0.00    +0.000 C 
BRANCH  23  24
ATOM     24  O4  UNK     0       2.084  -3.122  -1.145  0.00  0.00    +0.000 OA
ATOM     25  H55 UNK     0       1.432  -3.184  -1.892  0.00  0.00    +0.000 HD
ENDBRANCH  23  24
ENDBRANCH  16  17
ENDBRANCH   4  16
BRANCH   3  26
ATOM     26  C17 UNK     0      -3.697   0.901   0.317  0.00  0.00    +0.000 C 
BRANCH  26  27
ATOM     27  O2  UNK     0      -3.719   1.863   1.338  0.00  0.00    +0.000 OA
ATOM     28  H51 UNK     0      -4.174   2.668   0.968  0.00  0.00    +0.000 HD
ENDBRANCH  26  27
ENDBRANCH   3  26
TORSDOF 6
