REMARK  Name = C:\Users\Maximilian\Desktop\Conformers\converted_pdb\conformers_pdb\Andrographolide_conf_22.pdb
REMARK  8 active torsions:
REMARK  status: ('A' for Active; 'I' for Inactive)
REMARK    1  A    between atoms: C6_1  and  C14_9
REMARK    2  A    between atoms: C8_3  and  C18_12
REMARK    3  A    between atoms: C8_3  and  C17_24
REMARK    4  A    between atoms: C9_4  and  C19_14
REMARK    5  A    between atoms: C11_6  and  O1_27
REMARK    6  A    between atoms: C19_14  and  C21_15
REMARK    7  A    between atoms: C23_21  and  O4_22
REMARK    8  A    between atoms: C17_24  and  O2_25
REMARK                            x       y       z     vdW  Elec       q    Type
REMARK                         _______ _______ _______ _____ _____    ______ ____
ROOT
ATOM      1  C6  UNK     0      -0.312   0.443  -0.289  0.00  0.00    +0.000 C 
ATOM      2  C7  UNK     0      -1.619  -0.440  -0.469  0.00  0.00    +0.000 C 
ATOM      3  C8  UNK     0      -2.951  -0.015   0.307  0.00  0.00    +0.000 C 
ATOM      4  C9  UNK     0       0.940  -0.475  -0.664  0.00  0.00    +0.000 C 
ATOM      5  C10 UNK     0      -0.170   0.888   1.201  0.00  0.00    +0.000 C 
ATOM      6  C11 UNK     0      -2.568   0.414   1.762  0.00  0.00    +0.000 C 
ATOM      7  C12 UNK     0      -1.829  -0.796  -1.968  0.00  0.00    +0.000 C 
ATOM      8  C13 UNK     0      -1.452   1.466   1.790  0.00  0.00    +0.000 C 
ATOM      9  C14 UNK     0      -0.340   1.716  -1.186  0.00  0.00    +0.000 C 
ATOM     10  C15 UNK     0      -0.552  -1.274  -2.690  0.00  0.00    +0.000 C 
ATOM     11  C16 UNK     0       0.619  -1.490  -1.760  0.00  0.00    +0.000 C 
ATOM     12  C18 UNK     0      -3.875  -1.261   0.445  0.00  0.00    +0.000 C 
ATOM     13  C20 UNK     0       1.383  -2.587  -1.905  0.00  0.00    +0.000 C 
ENDROOT
BRANCH   6  14
ATOM     14  O1  UNK     0      -3.689   0.837   2.506  0.00  0.00    +0.000 OA
ATOM     15  H47 UNK     0      -3.843   1.801   2.328  0.00  0.00    +0.000 HD
ENDBRANCH   6  14
BRANCH   4  16
ATOM     16  C19 UNK     0       2.262   0.263  -1.033  0.00  0.00    +0.000 C 
BRANCH  16  17
ATOM     17  C21 UNK     0       2.851   1.055   0.102  0.00  0.00    +0.000 C 
ATOM     18  C22 UNK     0       3.666   0.538   1.035  0.00  0.00    +0.000 C 
ATOM     19  C24 UNK     0       4.288   1.294   2.097  0.00  0.00    +0.000 C 
ATOM     20  O3  UNK     0       5.179   0.517   2.802  0.00  0.00    +0.000 OA
ATOM     21  O5  UNK     0       4.064   2.506   2.359  0.00  0.00    +0.000 OA
ATOM     22  C25 UNK     0       5.257  -0.799   2.262  0.00  0.00    +0.000 C 
ATOM     23  C23 UNK     0       4.201  -0.866   1.125  0.00  0.00    +0.000 C 
BRANCH  23  24
ATOM     24  O4  UNK     0       3.190  -1.791   1.432  0.00  0.00    +0.000 OA
ATOM     25  H55 UNK     0       2.741  -1.486   2.265  0.00  0.00    +0.000 HD
ENDBRANCH  23  24
ENDBRANCH  16  17
ENDBRANCH   4  16
BRANCH   3  26
ATOM     26  C17 UNK     0      -3.801   1.104  -0.382  0.00  0.00    +0.000 C 
BRANCH  26  27
ATOM     27  O2  UNK     0      -4.298   0.697  -1.628  0.00  0.00    +0.000 OA
ATOM     28  H51 UNK     0      -4.790   1.474  -2.001  0.00  0.00    +0.000 HD
ENDBRANCH  26  27
ENDBRANCH   3  26
TORSDOF 6
