REMARK  Name = C:\Users\Maximilian\Desktop\Conformers\converted_pdb\conformers_pdb\Andrographolide_conf_18.pdb
REMARK  8 active torsions:
REMARK  status: ('A' for Active; 'I' for Inactive)
REMARK    1  A    between atoms: C6_1  and  C14_9
REMARK    2  A    between atoms: C8_3  and  C18_12
REMARK    3  A    between atoms: C8_3  and  C17_24
REMARK    4  A    between atoms: C9_4  and  C19_14
REMARK    5  A    between atoms: C11_6  and  O1_27
REMARK    6  A    between atoms: C19_14  and  C21_15
REMARK    7  A    between atoms: C23_21  and  O4_22
REMARK    8  A    between atoms: C17_24  and  O2_25
REMARK                            x       y       z     vdW  Elec       q    Type
REMARK                         _______ _______ _______ _____ _____    ______ ____
ROOT
ATOM      1  C6  UNK     0      -0.624  -0.019  -0.297  0.00  0.00    +0.000 C 
ATOM      2  C7  UNK     0      -1.920   0.173   0.601  0.00  0.00    +0.000 C 
ATOM      3  C8  UNK     0      -3.268   0.584  -0.133  0.00  0.00    +0.000 C 
ATOM      4  C9  UNK     0       0.618  -0.053   0.686  0.00  0.00    +0.000 C 
ATOM      5  C10 UNK     0      -0.499   1.195  -1.262  0.00  0.00    +0.000 C 
ATOM      6  C11 UNK     0      -2.966   1.766  -1.112  0.00  0.00    +0.000 C 
ATOM      7  C12 UNK     0      -2.071  -0.972   1.647  0.00  0.00    +0.000 C 
ATOM      8  C13 UNK     0      -1.781   1.485  -2.047  0.00  0.00    +0.000 C 
ATOM      9  C14 UNK     0      -0.635  -1.334  -1.132  0.00  0.00    +0.000 C 
ATOM     10  C15 UNK     0      -0.837  -1.066   2.554  0.00  0.00    +0.000 C 
ATOM     11  C16 UNK     0       0.408  -1.172   1.711  0.00  0.00    +0.000 C 
ATOM     12  C18 UNK     0      -4.268   1.127   0.933  0.00  0.00    +0.000 C 
ATOM     13  C20 UNK     0       1.165  -2.284   1.783  0.00  0.00    +0.000 C 
ENDROOT
BRANCH   6  14
ATOM     14  O1  UNK     0      -4.102   2.075  -1.881  0.00  0.00    +0.000 OA
ATOM     15  H47 UNK     0      -3.981   2.999  -2.222  0.00  0.00    +0.000 HD
ENDBRANCH   6  14
BRANCH   4  16
ATOM     16  C19 UNK     0       2.015  -0.055  -0.002  0.00  0.00    +0.000 C 
BRANCH  16  17
ATOM     17  C21 UNK     0       3.137   0.111   0.994  0.00  0.00    +0.000 C 
ATOM     18  C22 UNK     0       4.424   0.129   0.624  0.00  0.00    +0.000 C 
ATOM     19  C24 UNK     0       5.544   0.320   1.512  0.00  0.00    +0.000 C 
ATOM     20  O3  UNK     0       6.727   0.352   0.808  0.00  0.00    +0.000 OA
ATOM     21  O5  UNK     0       5.476   0.447   2.763  0.00  0.00    +0.000 OA
ATOM     22  C25 UNK     0       6.497   0.205  -0.590  0.00  0.00    +0.000 C 
ATOM     23  C23 UNK     0       4.968   0.000  -0.766  0.00  0.00    +0.000 C 
BRANCH  23  24
ATOM     24  O4  UNK     0       4.697  -1.282  -1.267  0.00  0.00    +0.000 OA
ATOM     25  H55 UNK     0       4.893  -1.249  -2.239  0.00  0.00    +0.000 HD
ENDBRANCH  23  24
ENDBRANCH  16  17
ENDBRANCH   4  16
BRANCH   3  26
ATOM     26  C17 UNK     0      -3.957  -0.608  -0.881  0.00  0.00    +0.000 C 
BRANCH  26  27
ATOM     27  O2  UNK     0      -5.296  -0.321  -1.199  0.00  0.00    +0.000 OA
ATOM     28  H51 UNK     0      -5.861  -0.710  -0.482  0.00  0.00    +0.000 HD
ENDBRANCH  26  27
ENDBRANCH   3  26
TORSDOF 6
