REMARK  Name = C:\Users\Maximilian\Desktop\Conformers\converted_pdb\conformers_pdb\Andrographolide_conf_49.pdb
REMARK  8 active torsions:
REMARK  status: ('A' for Active; 'I' for Inactive)
REMARK    1  A    between atoms: C6_1  and  C14_9
REMARK    2  A    between atoms: C8_3  and  C18_12
REMARK    3  A    between atoms: C8_3  and  C17_24
REMARK    4  A    between atoms: C9_4  and  C19_14
REMARK    5  A    between atoms: C11_6  and  O1_27
REMARK    6  A    between atoms: C19_14  and  C21_15
REMARK    7  A    between atoms: C23_21  and  O4_22
REMARK    8  A    between atoms: C17_24  and  O2_25
REMARK                            x       y       z     vdW  Elec       q    Type
REMARK                         _______ _______ _______ _____ _____    ______ ____
ROOT
ATOM      1  C6  UNK     0      -0.712   0.720   0.090  0.00  0.00    +0.000 C 
ATOM      2  C7  UNK     0      -1.508  -0.493  -0.560  0.00  0.00    +0.000 C 
ATOM      3  C8  UNK     0      -2.994  -0.745  -0.059  0.00  0.00    +0.000 C 
ATOM      4  C9  UNK     0       0.810   0.532  -0.299  0.00  0.00    +0.000 C 
ATOM      5  C10 UNK     0      -0.875   0.651   1.635  0.00  0.00    +0.000 C 
ATOM      6  C11 UNK     0      -3.007  -0.718   1.505  0.00  0.00    +0.000 C 
ATOM      7  C12 UNK     0      -1.323  -0.547  -2.108  0.00  0.00    +0.000 C 
ATOM      8  C13 UNK     0      -2.331   0.529   2.092  0.00  0.00    +0.000 C 
ATOM      9  C14 UNK     0      -1.188   2.116  -0.411  0.00  0.00    +0.000 C 
ATOM     10  C15 UNK     0       0.160  -0.640  -2.491  0.00  0.00    +0.000 C 
ATOM     11  C16 UNK     0       0.925   0.473  -1.824  0.00  0.00    +0.000 C 
ATOM     12  C18 UNK     0      -3.427  -2.180  -0.488  0.00  0.00    +0.000 C 
ATOM     13  C20 UNK     0       1.473   1.446  -2.579  0.00  0.00    +0.000 C 
ENDROOT
BRANCH   6  14
ATOM     14  O1  UNK     0      -4.324  -0.805   1.991  0.00  0.00    +0.000 OA
ATOM     15  H47 UNK     0      -4.268  -1.114   2.933  0.00  0.00    +0.000 HD
ENDBRANCH   6  14
BRANCH   4  16
ATOM     16  C19 UNK     0       1.813   1.505   0.396  0.00  0.00    +0.000 C 
BRANCH  16  17
ATOM     17  C21 UNK     0       3.246   1.148   0.093  0.00  0.00    +0.000 C 
ATOM     18  C22 UNK     0       3.919   0.132   0.657  0.00  0.00    +0.000 C 
ATOM     19  C24 UNK     0       3.483  -0.783   1.695  0.00  0.00    +0.000 C 
ATOM     20  O3  UNK     0       4.487  -1.671   2.012  0.00  0.00    +0.000 OA
ATOM     21  O5  UNK     0       2.366  -0.778   2.273  0.00  0.00    +0.000 OA
ATOM     22  C25 UNK     0       5.657  -1.429   1.239  0.00  0.00    +0.000 C 
ATOM     23  C23 UNK     0       5.332  -0.224   0.318  0.00  0.00    +0.000 C 
BRANCH  23  24
ATOM     24  O4  UNK     0       5.419  -0.589  -1.033  0.00  0.00    +0.000 OA
ATOM     25  H55 UNK     0       6.387  -0.635  -1.249  0.00  0.00    +0.000 HD
ENDBRANCH  23  24
ENDBRANCH  16  17
ENDBRANCH   4  16
BRANCH   3  26
ATOM     26  C17 UNK     0      -4.029   0.271  -0.652  0.00  0.00    +0.000 C 
BRANCH  26  27
ATOM     27  O2  UNK     0      -5.352  -0.178  -0.491  0.00  0.00    +0.000 OA
ATOM     28  H51 UNK     0      -5.616  -0.630  -1.335  0.00  0.00    +0.000 HD
ENDBRANCH  26  27
ENDBRANCH   3  26
TORSDOF 6
