REMARK  Name = C:\Users\Maximilian\Desktop\Conformers\converted_pdb\conformers_pdb\Andrographolide_conf_69.pdb
REMARK  8 active torsions:
REMARK  status: ('A' for Active; 'I' for Inactive)
REMARK    1  A    between atoms: C6_1  and  C14_9
REMARK    2  A    between atoms: C8_3  and  C18_12
REMARK    3  A    between atoms: C8_3  and  C17_24
REMARK    4  A    between atoms: C9_4  and  C19_14
REMARK    5  A    between atoms: C11_6  and  O1_27
REMARK    6  A    between atoms: C19_14  and  C21_15
REMARK    7  A    between atoms: C23_21  and  O4_22
REMARK    8  A    between atoms: C17_24  and  O2_25
REMARK                            x       y       z     vdW  Elec       q    Type
REMARK                         _______ _______ _______ _____ _____    ______ ____
ROOT
ATOM      1  C6  UNK     0      -0.296  -0.259   0.015  0.00  0.00    +0.000 C 
ATOM      2  C7  UNK     0      -1.795  -0.729  -0.199  0.00  0.00    +0.000 C 
ATOM      3  C8  UNK     0      -2.952   0.371  -0.103  0.00  0.00    +0.000 C 
ATOM      4  C9  UNK     0       0.582  -1.558   0.334  0.00  0.00    +0.000 C 
ATOM      5  C10 UNK     0      -0.180   0.743   1.231  0.00  0.00    +0.000 C 
ATOM      6  C11 UNK     0      -2.504   1.619   0.734  0.00  0.00    +0.000 C 
ATOM      7  C12 UNK     0      -1.947  -1.688  -1.417  0.00  0.00    +0.000 C 
ATOM      8  C13 UNK     0      -1.509   1.218   1.825  0.00  0.00    +0.000 C 
ATOM      9  C14 UNK     0       0.232   0.468  -1.256  0.00  0.00    +0.000 C 
ATOM     10  C15 UNK     0      -0.806  -2.709  -1.578  0.00  0.00    +0.000 C 
ATOM     11  C16 UNK     0       0.054  -2.818  -0.346  0.00  0.00    +0.000 C 
ATOM     12  C18 UNK     0      -4.157  -0.278   0.645  0.00  0.00    +0.000 C 
ATOM     13  C20 UNK     0       0.368  -4.032   0.141  0.00  0.00    +0.000 C 
ENDROOT
BRANCH   6  14
ATOM     14  O1  UNK     0      -1.938   2.617  -0.080  0.00  0.00    +0.000 OA
ATOM     15  H47 UNK     0      -1.910   3.452   0.457  0.00  0.00    +0.000 HD
ENDBRANCH   6  14
BRANCH   4  16
ATOM     16  C19 UNK     0       2.107  -1.437   0.048  0.00  0.00    +0.000 C 
BRANCH  16  17
ATOM     17  C21 UNK     0       2.777  -0.406   0.918  0.00  0.00    +0.000 C 
ATOM     18  C22 UNK     0       3.670   0.511   0.508  0.00  0.00    +0.000 C 
ATOM     19  C24 UNK     0       4.226   0.742  -0.815  0.00  0.00    +0.000 C 
ATOM     20  O3  UNK     0       5.121   1.789  -0.791  0.00  0.00    +0.000 OA
ATOM     21  O5  UNK     0       3.977   0.085  -1.859  0.00  0.00    +0.000 OA
ATOM     22  C25 UNK     0       5.257   2.333   0.516  0.00  0.00    +0.000 C 
ATOM     23  C23 UNK     0       4.299   1.519   1.424  0.00  0.00    +0.000 C 
BRANCH  23  24
ATOM     24  O4  UNK     0       3.328   2.343   2.023  0.00  0.00    +0.000 OA
ATOM     25  H55 UNK     0       2.800   2.767   1.295  0.00  0.00    +0.000 HD
ENDBRANCH  23  24
ENDBRANCH  16  17
ENDBRANCH   4  16
BRANCH   3  26
ATOM     26  C17 UNK     0      -3.538   0.829  -1.480  0.00  0.00    +0.000 C 
BRANCH  26  27
ATOM     27  O2  UNK     0      -2.553   1.317  -2.345  0.00  0.00    +0.000 OA
ATOM     28  H51 UNK     0      -3.019   1.577  -3.182  0.00  0.00    +0.000 HD
ENDBRANCH  26  27
ENDBRANCH   3  26
TORSDOF 6
