REMARK  Name = C:\Users\Maximilian\Desktop\Conformers\converted_pdb\conformers_pdb\Andrographolide_conf_62.pdb
REMARK  8 active torsions:
REMARK  status: ('A' for Active; 'I' for Inactive)
REMARK    1  A    between atoms: C6_1  and  C14_9
REMARK    2  A    between atoms: C8_3  and  C18_12
REMARK    3  A    between atoms: C8_3  and  C17_24
REMARK    4  A    between atoms: C9_4  and  C19_14
REMARK    5  A    between atoms: C11_6  and  O1_27
REMARK    6  A    between atoms: C19_14  and  C21_15
REMARK    7  A    between atoms: C23_21  and  O4_22
REMARK    8  A    between atoms: C17_24  and  O2_25
REMARK                            x       y       z     vdW  Elec       q    Type
REMARK                         _______ _______ _______ _____ _____    ______ ____
ROOT
ATOM      1  C6  UNK     0      -0.704   0.018   0.793  0.00  0.00    +0.000 C 
ATOM      2  C7  UNK     0      -1.707  -0.124  -0.423  0.00  0.00    +0.000 C 
ATOM      3  C8  UNK     0      -3.160   0.521  -0.258  0.00  0.00    +0.000 C 
ATOM      4  C9  UNK     0       0.441  -1.065   0.590  0.00  0.00    +0.000 C 
ATOM      5  C10 UNK     0      -1.413  -0.272   2.173  0.00  0.00    +0.000 C 
ATOM      6  C11 UNK     0      -3.585   0.607   1.253  0.00  0.00    +0.000 C 
ATOM      7  C12 UNK     0      -1.019   0.211  -1.783  0.00  0.00    +0.000 C 
ATOM      8  C13 UNK     0      -2.924  -0.499   2.080  0.00  0.00    +0.000 C 
ATOM      9  C14 UNK     0      -0.129   1.462   0.846  0.00  0.00    +0.000 C 
ATOM     10  C15 UNK     0       0.422  -0.322  -1.932  0.00  0.00    +0.000 C 
ATOM     11  C16 UNK     0       0.792  -1.327  -0.872  0.00  0.00    +0.000 C 
ATOM     12  C18 UNK     0      -4.178  -0.406  -0.984  0.00  0.00    +0.000 C 
ATOM     13  C20 UNK     0       1.408  -2.468  -1.224  0.00  0.00    +0.000 C 
ENDROOT
BRANCH   6  14
ATOM     14  O1  UNK     0      -3.266   1.863   1.805  0.00  0.00    +0.000 OA
ATOM     15  H47 UNK     0      -3.782   1.950   2.649  0.00  0.00    +0.000 HD
ENDBRANCH   6  14
BRANCH   4  16
ATOM     16  C19 UNK     0       1.705  -0.879   1.483  0.00  0.00    +0.000 C 
BRANCH  16  17
ATOM     17  C21 UNK     0       2.774  -0.013   0.853  0.00  0.00    +0.000 C 
ATOM     18  C22 UNK     0       3.915  -0.449   0.291  0.00  0.00    +0.000 C 
ATOM     19  C24 UNK     0       4.470  -1.790   0.227  0.00  0.00    +0.000 C 
ATOM     20  O3  UNK     0       5.669  -1.789  -0.450  0.00  0.00    +0.000 OA
ATOM     21  O5  UNK     0       3.979  -2.832   0.734  0.00  0.00    +0.000 OA
ATOM     22  C25 UNK     0       6.023  -0.480  -0.879  0.00  0.00    +0.000 C 
ATOM     23  C23 UNK     0       4.884   0.457  -0.404  0.00  0.00    +0.000 C 
BRANCH  23  24
ATOM     24  O4  UNK     0       4.258   1.075  -1.497  0.00  0.00    +0.000 OA
ATOM     25  H55 UNK     0       4.868   1.797  -1.798  0.00  0.00    +0.000 HD
ENDBRANCH  23  24
ENDBRANCH  16  17
ENDBRANCH   4  16
BRANCH   3  26
ATOM     26  C17 UNK     0      -3.289   1.925  -0.931  0.00  0.00    +0.000 C 
BRANCH  26  27
ATOM     27  O2  UNK     0      -4.538   2.501  -0.651  0.00  0.00    +0.000 OA
ATOM     28  H51 UNK     0      -4.543   3.387  -1.099  0.00  0.00    +0.000 HD
ENDBRANCH  26  27
ENDBRANCH   3  26
TORSDOF 6
