REMARK  Name = C:\Users\Maximilian\Desktop\Conformers\converted_pdb\conformers_pdb\Andrographolide_conf_14.pdb
REMARK  8 active torsions:
REMARK  status: ('A' for Active; 'I' for Inactive)
REMARK    1  A    between atoms: C6_1  and  C14_9
REMARK    2  A    between atoms: C8_3  and  C18_12
REMARK    3  A    between atoms: C8_3  and  C17_24
REMARK    4  A    between atoms: C9_4  and  C19_14
REMARK    5  A    between atoms: C11_6  and  O1_27
REMARK    6  A    between atoms: C19_14  and  C21_15
REMARK    7  A    between atoms: C23_21  and  O4_22
REMARK    8  A    between atoms: C17_24  and  O2_25
REMARK                            x       y       z     vdW  Elec       q    Type
REMARK                         _______ _______ _______ _____ _____    ______ ____
ROOT
ATOM      1  C6  UNK     0      -0.730  -0.620  -0.145  0.00  0.00    +0.000 C 
ATOM      2  C7  UNK     0      -1.251   0.577   0.764  0.00  0.00    +0.000 C 
ATOM      3  C8  UNK     0      -2.650   1.247   0.357  0.00  0.00    +0.000 C 
ATOM      4  C9  UNK     0       0.814  -0.776   0.165  0.00  0.00    +0.000 C 
ATOM      5  C10 UNK     0      -0.954  -0.208  -1.622  0.00  0.00    +0.000 C 
ATOM      6  C11 UNK     0      -3.361   0.482  -0.822  0.00  0.00    +0.000 C 
ATOM      7  C12 UNK     0      -1.016   0.309   2.284  0.00  0.00    +0.000 C 
ATOM      8  C13 UNK     0      -2.423   0.095  -1.992  0.00  0.00    +0.000 C 
ATOM      9  C14 UNK     0      -1.440  -1.989   0.127  0.00  0.00    +0.000 C 
ATOM     10  C15 UNK     0       0.454  -0.027   2.594  0.00  0.00    +0.000 C 
ATOM     11  C16 UNK     0       0.961  -1.090   1.653  0.00  0.00    +0.000 C 
ATOM     12  C18 UNK     0      -2.380   2.694  -0.165  0.00  0.00    +0.000 C 
ATOM     13  C20 UNK     0       1.302  -2.300   2.134  0.00  0.00    +0.000 C 
ENDROOT
BRANCH   6  14
ATOM     14  O1  UNK     0      -4.136  -0.629  -0.426  0.00  0.00    +0.000 OA
ATOM     15  H47 UNK     0      -3.811  -0.980   0.437  0.00  0.00    +0.000 HD
ENDBRANCH   6  14
BRANCH   4  16
ATOM     16  C19 UNK     0       1.627  -1.701  -0.793  0.00  0.00    +0.000 C 
BRANCH  16  17
ATOM     17  C21 UNK     0       3.104  -1.660  -0.489  0.00  0.00    +0.000 C 
ATOM     18  C22 UNK     0       3.935  -0.711  -0.950  0.00  0.00    +0.000 C 
ATOM     19  C24 UNK     0       5.341  -0.624  -0.640  0.00  0.00    +0.000 C 
ATOM     20  O3  UNK     0       5.908   0.480  -1.236  0.00  0.00    +0.000 OA
ATOM     21  O5  UNK     0       5.985  -1.432   0.080  0.00  0.00    +0.000 OA
ATOM     22  C25 UNK     0       4.939   1.224  -1.967  0.00  0.00    +0.000 C 
ATOM     23  C23 UNK     0       3.610   0.427  -1.872  0.00  0.00    +0.000 C 
BRANCH  23  24
ATOM     24  O4  UNK     0       3.248  -0.070  -3.133  0.00  0.00    +0.000 OA
ATOM     25  H55 UNK     0       2.845   0.688  -3.629  0.00  0.00    +0.000 HD
ENDBRANCH  23  24
ENDBRANCH  16  17
ENDBRANCH   4  16
BRANCH   3  26
ATOM     26  C17 UNK     0      -3.660   1.380   1.549  0.00  0.00    +0.000 C 
BRANCH  26  27
ATOM     27  O2  UNK     0      -3.297   2.408   2.433  0.00  0.00    +0.000 OA
ATOM     28  H51 UNK     0      -3.961   2.390   3.170  0.00  0.00    +0.000 HD
ENDBRANCH  26  27
ENDBRANCH   3  26
TORSDOF 6
