REMARK  Name = C:\Users\Maximilian\Desktop\Conformers\converted_pdb\conformers_pdb\Andrographolide_conf_2.pdb
REMARK  8 active torsions:
REMARK  status: ('A' for Active; 'I' for Inactive)
REMARK    1  A    between atoms: C6_1  and  C14_9
REMARK    2  A    between atoms: C8_3  and  C18_12
REMARK    3  A    between atoms: C8_3  and  C17_24
REMARK    4  A    between atoms: C9_4  and  C19_14
REMARK    5  A    between atoms: C11_6  and  O1_27
REMARK    6  A    between atoms: C19_14  and  C21_15
REMARK    7  A    between atoms: C23_21  and  O4_22
REMARK    8  A    between atoms: C17_24  and  O2_25
REMARK                            x       y       z     vdW  Elec       q    Type
REMARK                         _______ _______ _______ _____ _____    ______ ____
ROOT
ATOM      1  C6  UNK     0      -0.700  -0.213  -0.640  0.00  0.00    +0.000 C 
ATOM      2  C7  UNK     0      -1.532   0.236   0.636  0.00  0.00    +0.000 C 
ATOM      3  C8  UNK     0      -2.982   0.837   0.357  0.00  0.00    +0.000 C 
ATOM      4  C9  UNK     0       0.765  -0.583  -0.165  0.00  0.00    +0.000 C 
ATOM      5  C10 UNK     0      -0.638   0.975  -1.670  0.00  0.00    +0.000 C 
ATOM      6  C11 UNK     0      -3.043   1.561  -1.041  0.00  0.00    +0.000 C 
ATOM      7  C12 UNK     0      -1.503  -0.823   1.778  0.00  0.00    +0.000 C 
ATOM      8  C13 UNK     0      -1.669   2.096  -1.457  0.00  0.00    +0.000 C 
ATOM      9  C14 UNK     0      -1.329  -1.458  -1.331  0.00  0.00    +0.000 C 
ATOM     10  C15 UNK     0      -0.070  -1.179   2.184  0.00  0.00    +0.000 C 
ATOM     11  C16 UNK     0       0.686  -1.616   0.961  0.00  0.00    +0.000 C 
ATOM     12  C18 UNK     0      -3.274   1.907   1.450  0.00  0.00    +0.000 C 
ATOM     13  C20 UNK     0       1.039  -2.910   0.829  0.00  0.00    +0.000 C 
ENDROOT
BRANCH   6  14
ATOM     14  O1  UNK     0      -3.548   0.720  -2.049  0.00  0.00    +0.000 OA
ATOM     15  H47 UNK     0      -3.797   1.297  -2.818  0.00  0.00    +0.000 HD
ENDBRANCH   6  14
BRANCH   4  16
ATOM     16  C19 UNK     0       1.763  -0.949  -1.310  0.00  0.00    +0.000 C 
BRANCH  16  17
ATOM     17  C21 UNK     0       3.168  -1.144  -0.798  0.00  0.00    +0.000 C 
ATOM     18  C22 UNK     0       4.006  -0.156  -0.447  0.00  0.00    +0.000 C 
ATOM     19  C24 UNK     0       3.817   1.279  -0.534  0.00  0.00    +0.000 C 
ATOM     20  O3  UNK     0       4.934   1.948  -0.082  0.00  0.00    +0.000 OA
ATOM     21  O5  UNK     0       2.804   1.870  -0.988  0.00  0.00    +0.000 OA
ATOM     22  C25 UNK     0       5.955   1.044   0.324  0.00  0.00    +0.000 C 
ATOM     23  C23 UNK     0       5.384  -0.382   0.102  0.00  0.00    +0.000 C 
BRANCH  23  24
ATOM     24  O4  UNK     0       5.344  -1.117   1.301  0.00  0.00    +0.000 OA
ATOM     25  H55 UNK     0       4.751  -0.632   1.934  0.00  0.00    +0.000 HD
ENDBRANCH  23  24
ENDBRANCH  16  17
ENDBRANCH   4  16
BRANCH   3  26
ATOM     26  C17 UNK     0      -4.106  -0.243   0.473  0.00  0.00    +0.000 C 
BRANCH  26  27
ATOM     27  O2  UNK     0      -5.351   0.266   0.064  0.00  0.00    +0.000 OA
ATOM     28  H51 UNK     0      -5.817   0.593   0.877  0.00  0.00    +0.000 HD
ENDBRANCH  26  27
ENDBRANCH   3  26
TORSDOF 6
