REMARK  Name = C:\Users\Maximilian\Desktop\Conformers\converted_pdb\conformers_pdb\Andrographolide_conf_50.pdb
REMARK  8 active torsions:
REMARK  status: ('A' for Active; 'I' for Inactive)
REMARK    1  A    between atoms: C6_1  and  C14_9
REMARK    2  A    between atoms: C8_3  and  C18_12
REMARK    3  A    between atoms: C8_3  and  C17_24
REMARK    4  A    between atoms: C9_4  and  C19_14
REMARK    5  A    between atoms: C11_6  and  O1_27
REMARK    6  A    between atoms: C19_14  and  C21_15
REMARK    7  A    between atoms: C23_21  and  O4_22
REMARK    8  A    between atoms: C17_24  and  O2_25
REMARK                            x       y       z     vdW  Elec       q    Type
REMARK                         _______ _______ _______ _____ _____    ______ ____
ROOT
ATOM      1  C6  UNK     0      -0.476   0.448  -0.174  0.00  0.00    +0.000 C 
ATOM      2  C7  UNK     0      -1.561  -0.655  -0.480  0.00  0.00    +0.000 C 
ATOM      3  C8  UNK     0      -2.733  -0.856   0.601  0.00  0.00    +0.000 C 
ATOM      4  C9  UNK     0       0.857   0.034  -0.941  0.00  0.00    +0.000 C 
ATOM      5  C10 UNK     0      -0.228   0.439   1.357  0.00  0.00    +0.000 C 
ATOM      6  C11 UNK     0      -2.825   0.314   1.642  0.00  0.00    +0.000 C 
ATOM      7  C12 UNK     0      -1.990  -0.581  -1.972  0.00  0.00    +0.000 C 
ATOM      8  C13 UNK     0      -1.463   0.802   2.196  0.00  0.00    +0.000 C 
ATOM      9  C14 UNK     0      -0.928   1.872  -0.624  0.00  0.00    +0.000 C 
ATOM     10  C15 UNK     0      -0.800  -0.443  -2.952  0.00  0.00    +0.000 C 
ATOM     11  C16 UNK     0       0.553  -0.623  -2.291  0.00  0.00    +0.000 C 
ATOM     12  C18 UNK     0      -2.457  -2.168   1.397  0.00  0.00    +0.000 C 
ATOM     13  C20 UNK     0       1.486  -1.383  -2.891  0.00  0.00    +0.000 C 
ENDROOT
BRANCH   6  14
ATOM     14  O1  UNK     0      -3.552   1.396   1.114  0.00  0.00    +0.000 OA
ATOM     15  H47 UNK     0      -3.866   1.945   1.880  0.00  0.00    +0.000 HD
ENDBRANCH   6  14
BRANCH   4  16
ATOM     16  C19 UNK     0       1.920   1.156  -1.159  0.00  0.00    +0.000 C 
BRANCH  16  17
ATOM     17  C21 UNK     0       2.519   1.690   0.111  0.00  0.00    +0.000 C 
ATOM     18  C22 UNK     0       3.578   1.144   0.729  0.00  0.00    +0.000 C 
ATOM     19  C24 UNK     0       4.197   1.671   1.922  0.00  0.00    +0.000 C 
ATOM     20  O3  UNK     0       5.338   0.970   2.236  0.00  0.00    +0.000 OA
ATOM     21  O5  UNK     0       3.771   2.644   2.598  0.00  0.00    +0.000 OA
ATOM     22  C25 UNK     0       5.592  -0.054   1.280  0.00  0.00    +0.000 C 
ATOM     23  C23 UNK     0       4.403  -0.027   0.281  0.00  0.00    +0.000 C 
BRANCH  23  24
ATOM     24  O4  UNK     0       3.658  -1.210   0.382  0.00  0.00    +0.000 OA
ATOM     25  H55 UNK     0       4.158  -1.901  -0.124  0.00  0.00    +0.000 HD
ENDBRANCH  23  24
ENDBRANCH  16  17
ENDBRANCH   4  16
BRANCH   3  26
ATOM     26  C17 UNK     0      -4.134  -1.045  -0.068  0.00  0.00    +0.000 C 
BRANCH  26  27
ATOM     27  O2  UNK     0      -5.140  -1.192   0.900  0.00  0.00    +0.000 OA
ATOM     28  H51 UNK     0      -5.991  -1.306   0.402  0.00  0.00    +0.000 HD
ENDBRANCH  26  27
ENDBRANCH   3  26
TORSDOF 6
