REMARK  Name = C:\Users\Maximilian\Desktop\Conformers\converted_pdb\conformers_pdb\Andrographolide_conf_45.pdb
REMARK  8 active torsions:
REMARK  status: ('A' for Active; 'I' for Inactive)
REMARK    1  A    between atoms: C6_1  and  C14_9
REMARK    2  A    between atoms: C8_3  and  C18_12
REMARK    3  A    between atoms: C8_3  and  C17_24
REMARK    4  A    between atoms: C9_4  and  C19_14
REMARK    5  A    between atoms: C11_6  and  O1_27
REMARK    6  A    between atoms: C19_14  and  C21_15
REMARK    7  A    between atoms: C23_21  and  O4_22
REMARK    8  A    between atoms: C17_24  and  O2_25
REMARK                            x       y       z     vdW  Elec       q    Type
REMARK                         _______ _______ _______ _____ _____    ______ ____
ROOT
ATOM      1  C6  UNK     0      -0.415  -0.029   0.378  0.00  0.00    +0.000 C 
ATOM      2  C7  UNK     0      -1.906   0.420   0.618  0.00  0.00    +0.000 C 
ATOM      3  C8  UNK     0      -3.053  -0.486  -0.045  0.00  0.00    +0.000 C 
ATOM      4  C9  UNK     0       0.474   1.287   0.452  0.00  0.00    +0.000 C 
ATOM      5  C10 UNK     0      -0.306  -0.660  -1.034  0.00  0.00    +0.000 C 
ATOM      6  C11 UNK     0      -2.544  -1.903  -0.482  0.00  0.00    +0.000 C 
ATOM      7  C12 UNK     0      -2.096   0.835   2.101  0.00  0.00    +0.000 C 
ATOM      8  C13 UNK     0      -1.211  -1.883  -1.268  0.00  0.00    +0.000 C 
ATOM      9  C14 UNK     0       0.073  -1.066   1.438  0.00  0.00    +0.000 C 
ATOM     10  C15 UNK     0      -0.982   1.767   2.634  0.00  0.00    +0.000 C 
ATOM     11  C16 UNK     0       0.018   2.219   1.583  0.00  0.00    +0.000 C 
ATOM     12  C18 UNK     0      -3.562   0.231  -1.336  0.00  0.00    +0.000 C 
ATOM     13  C20 UNK     0       0.465   3.487   1.620  0.00  0.00    +0.000 C 
ENDROOT
BRANCH   6  14
ATOM     14  O1  UNK     0      -2.442  -2.770   0.618  0.00  0.00    +0.000 OA
ATOM     15  H47 UNK     0      -2.460  -3.699   0.266  0.00  0.00    +0.000 HD
ENDBRANCH   6  14
BRANCH   4  16
ATOM     16  C19 UNK     0       2.017   1.052   0.524  0.00  0.00    +0.000 C 
BRANCH  16  17
ATOM     17  C21 UNK     0       2.634   0.752  -0.815  0.00  0.00    +0.000 C 
ATOM     18  C22 UNK     0       3.883   0.285  -0.962  0.00  0.00    +0.000 C 
ATOM     19  C24 UNK     0       4.871   0.032   0.064  0.00  0.00    +0.000 C 
ATOM     20  O3  UNK     0       6.003  -0.533  -0.482  0.00  0.00    +0.000 OA
ATOM     21  O5  UNK     0       4.756   0.304   1.286  0.00  0.00    +0.000 OA
ATOM     22  C25 UNK     0       5.883  -0.685  -1.889  0.00  0.00    +0.000 C 
ATOM     23  C23 UNK     0       4.483  -0.136  -2.268  0.00  0.00    +0.000 C 
BRANCH  23  24
ATOM     24  O4  UNK     0       3.700  -1.140  -2.848  0.00  0.00    +0.000 OA
ATOM     25  H55 UNK     0       4.019  -1.241  -3.782  0.00  0.00    +0.000 HD
ENDBRANCH  23  24
ENDBRANCH  16  17
ENDBRANCH   4  16
BRANCH   3  26
ATOM     26  C17 UNK     0      -4.330  -0.644   0.847  0.00  0.00    +0.000 C 
BRANCH  26  27
ATOM     27  O2  UNK     0      -4.065  -1.323   2.045  0.00  0.00    +0.000 OA
ATOM     28  H51 UNK     0      -4.933  -1.397   2.522  0.00  0.00    +0.000 HD
ENDBRANCH  26  27
ENDBRANCH   3  26
TORSDOF 6
