REMARK  Name = C:\Users\Maximilian\Desktop\Conformers\converted_pdb\conformers_pdb\Andrographolide_conf_63.pdb
REMARK  8 active torsions:
REMARK  status: ('A' for Active; 'I' for Inactive)
REMARK    1  A    between atoms: C6_1  and  C14_9
REMARK    2  A    between atoms: C8_3  and  C18_12
REMARK    3  A    between atoms: C8_3  and  C17_24
REMARK    4  A    between atoms: C9_4  and  C19_14
REMARK    5  A    between atoms: C11_6  and  O1_27
REMARK    6  A    between atoms: C19_14  and  C21_15
REMARK    7  A    between atoms: C23_21  and  O4_22
REMARK    8  A    between atoms: C17_24  and  O2_25
REMARK                            x       y       z     vdW  Elec       q    Type
REMARK                         _______ _______ _______ _____ _____    ______ ____
ROOT
ATOM      1  C6  UNK     0      -0.781   0.016  -0.735  0.00  0.00    +0.000 C 
ATOM      2  C7  UNK     0      -1.784  -0.188   0.468  0.00  0.00    +0.000 C 
ATOM      3  C8  UNK     0      -3.278   0.262   0.210  0.00  0.00    +0.000 C 
ATOM      4  C9  UNK     0       0.664   0.194  -0.103  0.00  0.00    +0.000 C 
ATOM      5  C10 UNK     0      -1.183   1.289  -1.552  0.00  0.00    +0.000 C 
ATOM      6  C11 UNK     0      -3.282   1.800  -0.179  0.00  0.00    +0.000 C 
ATOM      7  C12 UNK     0      -1.561  -1.565   1.147  0.00  0.00    +0.000 C 
ATOM      8  C13 UNK     0      -1.929   2.329  -0.713  0.00  0.00    +0.000 C 
ATOM      9  C14 UNK     0      -0.783  -1.197  -1.724  0.00  0.00    +0.000 C 
ATOM     10  C15 UNK     0      -0.061  -1.872   1.397  0.00  0.00    +0.000 C 
ATOM     11  C16 UNK     0       0.845  -0.674   1.151  0.00  0.00    +0.000 C 
ATOM     12  C18 UNK     0      -4.087   0.106   1.528  0.00  0.00    +0.000 C 
ATOM     13  C20 UNK     0       1.723  -0.311   2.103  0.00  0.00    +0.000 C 
ENDROOT
BRANCH   6  14
ATOM     14  O1  UNK     0      -4.286   2.100  -1.118  0.00  0.00    +0.000 OA
ATOM     15  H47 UNK     0      -5.134   2.204  -0.612  0.00  0.00    +0.000 HD
ENDBRANCH   6  14
BRANCH   4  16
ATOM     16  C19 UNK     0       1.823  -0.031  -1.117  0.00  0.00    +0.000 C 
BRANCH  16  17
ATOM     17  C21 UNK     0       3.126   0.567  -0.654  0.00  0.00    +0.000 C 
ATOM     18  C22 UNK     0       4.150  -0.118  -0.116  0.00  0.00    +0.000 C 
ATOM     19  C24 UNK     0       4.258  -1.536   0.182  0.00  0.00    +0.000 C 
ATOM     20  O3  UNK     0       5.468  -1.819   0.775  0.00  0.00    +0.000 OA
ATOM     21  O5  UNK     0       3.381  -2.414  -0.029  0.00  0.00    +0.000 OA
ATOM     22  C25 UNK     0       6.257  -0.646   0.941  0.00  0.00    +0.000 C 
ATOM     23  C23 UNK     0       5.426   0.521   0.346  0.00  0.00    +0.000 C 
BRANCH  23  24
ATOM     24  O4  UNK     0       6.100   1.148  -0.716  0.00  0.00    +0.000 OA
ATOM     25  H55 UNK     0       6.253   0.466  -1.423  0.00  0.00    +0.000 HD
ENDBRANCH  23  24
ENDBRANCH  16  17
ENDBRANCH   4  16
BRANCH   3  26
ATOM     26  C17 UNK     0      -3.973  -0.608  -0.884  0.00  0.00    +0.000 C 
BRANCH  26  27
ATOM     27  O2  UNK     0      -5.366  -0.432  -0.870  0.00  0.00    +0.000 OA
ATOM     28  H51 UNK     0      -5.728  -1.016  -1.587  0.00  0.00    +0.000 HD
ENDBRANCH  26  27
ENDBRANCH   3  26
TORSDOF 6
