REMARK  Name = C:\Users\Maximilian\Desktop\Conformers\converted_pdb\conformers_pdb\Andrographolide_conf_55.pdb
REMARK  8 active torsions:
REMARK  status: ('A' for Active; 'I' for Inactive)
REMARK    1  A    between atoms: C6_1  and  C14_9
REMARK    2  A    between atoms: C8_3  and  C18_12
REMARK    3  A    between atoms: C8_3  and  C17_24
REMARK    4  A    between atoms: C9_4  and  C19_14
REMARK    5  A    between atoms: C11_6  and  O1_27
REMARK    6  A    between atoms: C19_14  and  C21_15
REMARK    7  A    between atoms: C23_21  and  O4_22
REMARK    8  A    between atoms: C17_24  and  O2_25
REMARK                            x       y       z     vdW  Elec       q    Type
REMARK                         _______ _______ _______ _____ _____    ______ ____
ROOT
ATOM      1  C6  UNK     0      -0.586   0.114   0.231  0.00  0.00    +0.000 C 
ATOM      2  C7  UNK     0      -1.903  -0.463  -0.426  0.00  0.00    +0.000 C 
ATOM      3  C8  UNK     0      -3.208   0.459  -0.439  0.00  0.00    +0.000 C 
ATOM      4  C9  UNK     0       0.366  -1.111   0.573  0.00  0.00    +0.000 C 
ATOM      5  C10 UNK     0      -0.947   0.844   1.563  0.00  0.00    +0.000 C 
ATOM      6  C11 UNK     0      -3.370   1.125   0.965  0.00  0.00    +0.000 C 
ATOM      7  C12 UNK     0      -1.564  -1.119  -1.783  0.00  0.00    +0.000 C 
ATOM      8  C13 UNK     0      -2.094   1.839   1.420  0.00  0.00    +0.000 C 
ATOM      9  C14 UNK     0       0.165   1.113  -0.699  0.00  0.00    +0.000 C 
ATOM     10  C15 UNK     0      -0.593  -2.297  -1.645  0.00  0.00    +0.000 C 
ATOM     11  C16 UNK     0       0.378  -2.232  -0.480  0.00  0.00    +0.000 C 
ATOM     12  C18 UNK     0      -4.463  -0.441  -0.645  0.00  0.00    +0.000 C 
ATOM     13  C20 UNK     0       1.160  -3.314  -0.296  0.00  0.00    +0.000 C 
ENDROOT
BRANCH   6  14
ATOM     14  O1  UNK     0      -4.442   2.037   0.966  0.00  0.00    +0.000 OA
ATOM     15  H47 UNK     0      -4.711   2.170   1.912  0.00  0.00    +0.000 HD
ENDBRANCH   6  14
BRANCH   4  16
ATOM     16  C19 UNK     0       1.803  -0.702   1.038  0.00  0.00    +0.000 C 
BRANCH  16  17
ATOM     17  C21 UNK     0       2.793  -0.499  -0.085  0.00  0.00    +0.000 C 
ATOM     18  C22 UNK     0       4.055  -0.111   0.135  0.00  0.00    +0.000 C 
ATOM     19  C24 UNK     0       5.064   0.067  -0.881  0.00  0.00    +0.000 C 
ATOM     20  O3  UNK     0       6.274   0.413  -0.319  0.00  0.00    +0.000 OA
ATOM     21  O5  UNK     0       4.888  -0.076  -2.120  0.00  0.00    +0.000 OA
ATOM     22  C25 UNK     0       6.185   0.475   1.102  0.00  0.00    +0.000 C 
ATOM     23  C23 UNK     0       4.703   0.176   1.460  0.00  0.00    +0.000 C 
BRANCH  23  24
ATOM     24  O4  UNK     0       4.102   1.272   2.104  0.00  0.00    +0.000 OA
ATOM     25  H55 UNK     0       4.127   2.043   1.479  0.00  0.00    +0.000 HD
ENDBRANCH  23  24
ENDBRANCH  16  17
ENDBRANCH   4  16
BRANCH   3  26
ATOM     26  C17 UNK     0      -3.251   1.555  -1.556  0.00  0.00    +0.000 C 
BRANCH  26  27
ATOM     27  O2  UNK     0      -3.126   1.007  -2.839  0.00  0.00    +0.000 OA
ATOM     28  H51 UNK     0      -3.128   1.772  -3.472  0.00  0.00    +0.000 HD
ENDBRANCH  26  27
ENDBRANCH   3  26
TORSDOF 6
