REMARK  Name = C:\Users\Maximilian\Desktop\Conformers\converted_pdb\conformers_pdb\Andrographolide_conf_54.pdb
REMARK  8 active torsions:
REMARK  status: ('A' for Active; 'I' for Inactive)
REMARK    1  A    between atoms: C6_1  and  C14_9
REMARK    2  A    between atoms: C8_3  and  C18_12
REMARK    3  A    between atoms: C8_3  and  C17_24
REMARK    4  A    between atoms: C9_4  and  C19_14
REMARK    5  A    between atoms: C11_6  and  O1_27
REMARK    6  A    between atoms: C19_14  and  C21_15
REMARK    7  A    between atoms: C23_21  and  O4_22
REMARK    8  A    between atoms: C17_24  and  O2_25
REMARK                            x       y       z     vdW  Elec       q    Type
REMARK                         _______ _______ _______ _____ _____    ______ ____
ROOT
ATOM      1  C6  UNK     0      -0.349  -0.103   0.204  0.00  0.00    +0.000 C 
ATOM      2  C7  UNK     0      -1.679  -0.255   1.040  0.00  0.00    +0.000 C 
ATOM      3  C8  UNK     0      -2.808  -1.236   0.483  0.00  0.00    +0.000 C 
ATOM      4  C9  UNK     0       0.431   1.204   0.711  0.00  0.00    +0.000 C 
ATOM      5  C10 UNK     0      -0.730   0.087  -1.299  0.00  0.00    +0.000 C 
ATOM      6  C11 UNK     0      -3.015  -0.964  -1.046  0.00  0.00    +0.000 C 
ATOM      7  C12 UNK     0      -1.333  -0.473   2.532  0.00  0.00    +0.000 C 
ATOM      8  C13 UNK     0      -1.700  -0.964  -1.830  0.00  0.00    +0.000 C 
ATOM      9  C14 UNK     0       0.568  -1.359   0.325  0.00  0.00    +0.000 C 
ATOM     10  C15 UNK     0      -0.652   0.752   3.142  0.00  0.00    +0.000 C 
ATOM     11  C16 UNK     0       0.171   1.583   2.180  0.00  0.00    +0.000 C 
ATOM     12  C18 UNK     0      -4.154  -0.882   1.194  0.00  0.00    +0.000 C 
ATOM     13  C20 UNK     0       0.542   2.807   2.612  0.00  0.00    +0.000 C 
ENDROOT
BRANCH   6  14
ATOM     14  O1  UNK     0      -3.861  -1.938  -1.616  0.00  0.00    +0.000 OA
ATOM     15  H47 UNK     0      -4.762  -1.532  -1.724  0.00  0.00    +0.000 HD
ENDBRANCH   6  14
BRANCH   4  16
ATOM     16  C19 UNK     0       1.975   1.220   0.434  0.00  0.00    +0.000 C 
BRANCH  16  17
ATOM     17  C21 UNK     0       2.318   1.441  -1.015  0.00  0.00    +0.000 C 
ATOM     18  C22 UNK     0       3.554   1.304  -1.515  0.00  0.00    +0.000 C 
ATOM     19  C24 UNK     0       4.779   0.964  -0.819  0.00  0.00    +0.000 C 
ATOM     20  O3  UNK     0       5.845   0.949  -1.692  0.00  0.00    +0.000 OA
ATOM     21  O5  UNK     0       4.894   0.736   0.414  0.00  0.00    +0.000 OA
ATOM     22  C25 UNK     0       5.433   1.233  -3.023  0.00  0.00    +0.000 C 
ATOM     23  C23 UNK     0       3.914   1.542  -2.949  0.00  0.00    +0.000 C 
BRANCH  23  24
ATOM     24  O4  UNK     0       3.169   0.719  -3.814  0.00  0.00    +0.000 OA
ATOM     25  H55 UNK     0       3.303  -0.223  -3.531  0.00  0.00    +0.000 HD
ENDBRANCH  23  24
ENDBRANCH  16  17
ENDBRANCH   4  16
BRANCH   3  26
ATOM     26  C17 UNK     0      -2.498  -2.759   0.733  0.00  0.00    +0.000 C 
BRANCH  26  27
ATOM     27  O2  UNK     0      -3.674  -3.530   0.787  0.00  0.00    +0.000 OA
ATOM     28  H51 UNK     0      -3.843  -3.746   1.743  0.00  0.00    +0.000 HD
ENDBRANCH  26  27
ENDBRANCH   3  26
TORSDOF 6
