REMARK  Name = C:\Users\Maximilian\Desktop\Conformers\converted_pdb\conformers_pdb\Andrographolide_conf_61.pdb
REMARK  8 active torsions:
REMARK  status: ('A' for Active; 'I' for Inactive)
REMARK    1  A    between atoms: C6_1  and  C14_9
REMARK    2  A    between atoms: C8_3  and  C18_12
REMARK    3  A    between atoms: C8_3  and  C17_24
REMARK    4  A    between atoms: C9_4  and  C19_14
REMARK    5  A    between atoms: C11_6  and  O1_27
REMARK    6  A    between atoms: C19_14  and  C21_15
REMARK    7  A    between atoms: C23_21  and  O4_22
REMARK    8  A    between atoms: C17_24  and  O2_25
REMARK                            x       y       z     vdW  Elec       q    Type
REMARK                         _______ _______ _______ _____ _____    ______ ____
ROOT
ATOM      1  C6  UNK     0      -0.775   0.061  -0.585  0.00  0.00    +0.000 C 
ATOM      2  C7  UNK     0      -1.435  -0.241   0.829  0.00  0.00    +0.000 C 
ATOM      3  C8  UNK     0      -2.939   0.266   1.029  0.00  0.00    +0.000 C 
ATOM      4  C9  UNK     0       0.756  -0.335  -0.520  0.00  0.00    +0.000 C 
ATOM      5  C10 UNK     0      -0.883   1.608  -0.857  0.00  0.00    +0.000 C 
ATOM      6  C11 UNK     0      -3.300   1.404  -0.011  0.00  0.00    +0.000 C 
ATOM      7  C12 UNK     0      -1.190  -1.703   1.306  0.00  0.00    +0.000 C 
ATOM      8  C13 UNK     0      -2.099   2.331  -0.236  0.00  0.00    +0.000 C 
ATOM      9  C14 UNK     0      -1.456  -0.752  -1.739  0.00  0.00    +0.000 C 
ATOM     10  C15 UNK     0       0.305  -2.034   1.346  0.00  0.00    +0.000 C 
ATOM     11  C16 UNK     0       0.888  -1.776  -0.016  0.00  0.00    +0.000 C 
ATOM     12  C18 UNK     0      -3.038   0.878   2.462  0.00  0.00    +0.000 C 
ATOM     13  C20 UNK     0       1.251  -2.821  -0.787  0.00  0.00    +0.000 C 
ENDROOT
BRANCH   6  14
ATOM     14  O1  UNK     0      -3.705   0.918  -1.271  0.00  0.00    +0.000 OA
ATOM     15  H47 UNK     0      -4.582   0.447  -1.147  0.00  0.00    +0.000 HD
ENDBRANCH   6  14
BRANCH   4  16
ATOM     16  C19 UNK     0       1.560  -0.028  -1.819  0.00  0.00    +0.000 C 
BRANCH  16  17
ATOM     17  C21 UNK     0       3.035  -0.285  -1.622  0.00  0.00    +0.000 C 
ATOM     18  C22 UNK     0       3.879   0.547  -0.991  0.00  0.00    +0.000 C 
ATOM     19  C24 UNK     0       3.643   1.898  -0.523  0.00  0.00    +0.000 C 
ATOM     20  O3  UNK     0       4.779   2.415   0.064  0.00  0.00    +0.000 OA
ATOM     21  O5  UNK     0       2.591   2.564  -0.678  0.00  0.00    +0.000 OA
ATOM     22  C25 UNK     0       5.862   1.495  -0.005  0.00  0.00    +0.000 C 
ATOM     23  C23 UNK     0       5.283   0.191  -0.625  0.00  0.00    +0.000 C 
BRANCH  23  24
ATOM     24  O4  UNK     0       5.270  -0.842   0.329  0.00  0.00    +0.000 OA
ATOM     25  H55 UNK     0       6.202  -1.163   0.408  0.00  0.00    +0.000 HD
ENDBRANCH  23  24
ENDBRANCH  16  17
ENDBRANCH   4  16
BRANCH   3  26
ATOM     26  C17 UNK     0      -4.000  -0.891   0.989  0.00  0.00    +0.000 C 
BRANCH  26  27
ATOM     27  O2  UNK     0      -5.311  -0.394   1.080  0.00  0.00    +0.000 OA
ATOM     28  H51 UNK     0      -5.555  -0.383   2.056  0.00  0.00    +0.000 HD
ENDBRANCH  26  27
ENDBRANCH   3  26
TORSDOF 6
