REMARK  Name = C:\Users\Maximilian\Desktop\Conformers\converted_pdb\conformers_pdb\Andrographolide_conf_29.pdb
REMARK  8 active torsions:
REMARK  status: ('A' for Active; 'I' for Inactive)
REMARK    1  A    between atoms: C6_1  and  C14_9
REMARK    2  A    between atoms: C8_3  and  C18_12
REMARK    3  A    between atoms: C8_3  and  C17_24
REMARK    4  A    between atoms: C9_4  and  C19_14
REMARK    5  A    between atoms: C11_6  and  O1_27
REMARK    6  A    between atoms: C19_14  and  C21_15
REMARK    7  A    between atoms: C23_21  and  O4_22
REMARK    8  A    between atoms: C17_24  and  O2_25
REMARK                            x       y       z     vdW  Elec       q    Type
REMARK                         _______ _______ _______ _____ _____    ______ ____
ROOT
ATOM      1  C6  UNK     0      -0.320  -0.047  -0.181  0.00  0.00    +0.000 C 
ATOM      2  C7  UNK     0      -1.813  -0.194  -0.669  0.00  0.00    +0.000 C 
ATOM      3  C8  UNK     0      -2.970   0.231   0.362  0.00  0.00    +0.000 C 
ATOM      4  C9  UNK     0       0.542  -1.114  -0.988  0.00  0.00    +0.000 C 
ATOM      5  C10 UNK     0      -0.279  -0.368   1.336  0.00  0.00    +0.000 C 
ATOM      6  C11 UNK     0      -2.437   1.095   1.557  0.00  0.00    +0.000 C 
ATOM      7  C12 UNK     0      -1.945   0.325  -2.128  0.00  0.00    +0.000 C 
ATOM      8  C13 UNK     0      -1.140   0.562   2.207  0.00  0.00    +0.000 C 
ATOM      9  C14 UNK     0       0.253   1.387  -0.417  0.00  0.00    +0.000 C 
ATOM     10  C15 UNK     0      -0.816  -0.166  -3.067  0.00  0.00    +0.000 C 
ATOM     11  C16 UNK     0       0.081  -1.223  -2.447  0.00  0.00    +0.000 C 
ATOM     12  C18 UNK     0      -3.600  -1.062   0.964  0.00  0.00    +0.000 C 
ATOM     13  C20 UNK     0       0.439  -2.291  -3.183  0.00  0.00    +0.000 C 
ENDROOT
BRANCH   6  14
ATOM     14  O1  UNK     0      -2.251   2.437   1.173  0.00  0.00    +0.000 OA
ATOM     15  H47 UNK     0      -3.060   2.949   1.436  0.00  0.00    +0.000 HD
ENDBRANCH   6  14
BRANCH   4  16
ATOM     16  C19 UNK     0       2.089  -0.922  -0.944  0.00  0.00    +0.000 C 
BRANCH  16  17
ATOM     17  C21 UNK     0       2.679  -1.255   0.399  0.00  0.00    +0.000 C 
ATOM     18  C22 UNK     0       3.668  -0.551   0.967  0.00  0.00    +0.000 C 
ATOM     19  C24 UNK     0       4.267  -0.840   2.247  0.00  0.00    +0.000 C 
ATOM     20  O3  UNK     0       5.234   0.089   2.562  0.00  0.00    +0.000 OA
ATOM     21  O5  UNK     0       3.961  -1.805   2.997  0.00  0.00    +0.000 OA
ATOM     22  C25 UNK     0       5.354   1.076   1.542  0.00  0.00    +0.000 C 
ATOM     23  C23 UNK     0       4.349   0.676   0.427  0.00  0.00    +0.000 C 
BRANCH  23  24
ATOM     24  O4  UNK     0       5.007   0.407  -0.786  0.00  0.00    +0.000 OA
ATOM     25  H55 UNK     0       5.633  -0.348  -0.631  0.00  0.00    +0.000 HD
ENDBRANCH  23  24
ENDBRANCH  16  17
ENDBRANCH   4  16
BRANCH   3  26
ATOM     26  C17 UNK     0      -4.139   0.997  -0.341  0.00  0.00    +0.000 C 
BRANCH  26  27
ATOM     27  O2  UNK     0      -5.122   1.400   0.581  0.00  0.00    +0.000 OA
ATOM     28  H51 UNK     0      -5.844   0.720   0.560  0.00  0.00    +0.000 HD
ENDBRANCH  26  27
ENDBRANCH   3  26
TORSDOF 6
