REMARK  Name = C:\Users\Maximilian\Desktop\Conformers\converted_pdb\conformers_pdb\Andrographolide_conf_8.pdb
REMARK  8 active torsions:
REMARK  status: ('A' for Active; 'I' for Inactive)
REMARK    1  A    between atoms: C6_1  and  C14_9
REMARK    2  A    between atoms: C8_3  and  C18_12
REMARK    3  A    between atoms: C8_3  and  C17_24
REMARK    4  A    between atoms: C9_4  and  C19_14
REMARK    5  A    between atoms: C11_6  and  O1_27
REMARK    6  A    between atoms: C19_14  and  C21_15
REMARK    7  A    between atoms: C23_21  and  O4_22
REMARK    8  A    between atoms: C17_24  and  O2_25
REMARK                            x       y       z     vdW  Elec       q    Type
REMARK                         _______ _______ _______ _____ _____    ______ ____
ROOT
ATOM      1  C6  UNK     0      -0.861  -0.631   0.140  0.00  0.00    +0.000 C 
ATOM      2  C7  UNK     0      -1.542   0.684  -0.427  0.00  0.00    +0.000 C 
ATOM      3  C8  UNK     0      -3.095   0.922  -0.143  0.00  0.00    +0.000 C 
ATOM      4  C9  UNK     0       0.439  -0.898  -0.738  0.00  0.00    +0.000 C 
ATOM      5  C10 UNK     0      -1.819  -1.849  -0.026  0.00  0.00    +0.000 C 
ATOM      6  C11 UNK     0      -3.862  -0.430  -0.338  0.00  0.00    +0.000 C 
ATOM      7  C12 UNK     0      -0.633   1.921  -0.167  0.00  0.00    +0.000 C 
ATOM      8  C13 UNK     0      -3.238  -1.571   0.465  0.00  0.00    +0.000 C 
ATOM      9  C14 UNK     0      -0.492  -0.504   1.647  0.00  0.00    +0.000 C 
ATOM     10  C15 UNK     0       0.864   1.691  -0.474  0.00  0.00    +0.000 C 
ATOM     11  C16 UNK     0       1.140   0.385  -1.182  0.00  0.00    +0.000 C 
ATOM     12  C18 UNK     0      -3.658   1.905  -1.212  0.00  0.00    +0.000 C 
ATOM     13  C20 UNK     0       1.984   0.362  -2.228  0.00  0.00    +0.000 C 
ENDROOT
BRANCH   6  14
ATOM     14  O1  UNK     0      -5.216  -0.317   0.030  0.00  0.00    +0.000 OA
ATOM     15  H47 UNK     0      -5.731  -0.098  -0.790  0.00  0.00    +0.000 HD
ENDBRANCH   6  14
BRANCH   4  16
ATOM     16  C19 UNK     0       1.440  -1.957  -0.180  0.00  0.00    +0.000 C 
BRANCH  16  17
ATOM     17  C21 UNK     0       2.501  -1.378   0.731  0.00  0.00    +0.000 C 
ATOM     18  C22 UNK     0       3.791  -1.170   0.412  0.00  0.00    +0.000 C 
ATOM     19  C24 UNK     0       4.521  -1.517  -0.796  0.00  0.00    +0.000 C 
ATOM     20  O3  UNK     0       5.837  -1.122  -0.699  0.00  0.00    +0.000 OA
ATOM     21  O5  UNK     0       4.068  -2.122  -1.802  0.00  0.00    +0.000 OA
ATOM     22  C25 UNK     0       6.103  -0.501   0.552  0.00  0.00    +0.000 C 
ATOM     23  C23 UNK     0       4.767  -0.510   1.336  0.00  0.00    +0.000 C 
BRANCH  23  24
ATOM     24  O4  UNK     0       4.345   0.799   1.616  0.00  0.00    +0.000 OA
ATOM     25  H55 UNK     0       4.907   1.119   2.369  0.00  0.00    +0.000 HD
ENDBRANCH  23  24
ENDBRANCH  16  17
ENDBRANCH   4  16
BRANCH   3  26
ATOM     26  C17 UNK     0      -3.429   1.534   1.259  0.00  0.00    +0.000 C 
BRANCH  26  27
ATOM     27  O2  UNK     0      -2.944   2.844   1.388  0.00  0.00    +0.000 OA
ATOM     28  H51 UNK     0      -3.179   3.141   2.305  0.00  0.00    +0.000 HD
ENDBRANCH  26  27
ENDBRANCH   3  26
TORSDOF 6
