REMARK  Name = C:\Users\Maximilian\Desktop\Conformers\converted_pdb\conformers_pdb\Andrographolide_conf_37.pdb
REMARK  8 active torsions:
REMARK  status: ('A' for Active; 'I' for Inactive)
REMARK    1  A    between atoms: C6_1  and  C14_9
REMARK    2  A    between atoms: C8_3  and  C18_12
REMARK    3  A    between atoms: C8_3  and  C17_24
REMARK    4  A    between atoms: C9_4  and  C19_14
REMARK    5  A    between atoms: C11_6  and  O1_27
REMARK    6  A    between atoms: C19_14  and  C21_15
REMARK    7  A    between atoms: C23_21  and  O4_22
REMARK    8  A    between atoms: C17_24  and  O2_25
REMARK                            x       y       z     vdW  Elec       q    Type
REMARK                         _______ _______ _______ _____ _____    ______ ____
ROOT
ATOM      1  C6  UNK     0      -0.757  -0.522  -0.369  0.00  0.00    +0.000 C 
ATOM      2  C7  UNK     0      -1.505   0.447   0.642  0.00  0.00    +0.000 C 
ATOM      3  C8  UNK     0      -3.035   0.758   0.321  0.00  0.00    +0.000 C 
ATOM      4  C9  UNK     0       0.782  -0.534   0.010  0.00  0.00    +0.000 C 
ATOM      5  C10 UNK     0      -0.936   0.014  -1.838  0.00  0.00    +0.000 C 
ATOM      6  C11 UNK     0      -3.319   0.702  -1.227  0.00  0.00    +0.000 C 
ATOM      7  C12 UNK     0      -1.239   0.084   2.134  0.00  0.00    +0.000 C 
ATOM      8  C13 UNK     0      -2.065   1.039  -2.040  0.00  0.00    +0.000 C 
ATOM      9  C14 UNK     0      -1.302  -1.978  -0.283  0.00  0.00    +0.000 C 
ATOM     10  C15 UNK     0       0.258   0.049   2.451  0.00  0.00    +0.000 C 
ATOM     11  C16 UNK     0       0.935  -0.888   1.490  0.00  0.00    +0.000 C 
ATOM     12  C18 UNK     0      -3.339   2.208   0.801  0.00  0.00    +0.000 C 
ATOM     13  C20 UNK     0       1.423  -2.060   1.943  0.00  0.00    +0.000 C 
ENDROOT
BRANCH   6  14
ATOM     14  O1  UNK     0      -3.820  -0.549  -1.628  0.00  0.00    +0.000 OA
ATOM     15  H47 UNK     0      -4.214  -0.433  -2.532  0.00  0.00    +0.000 HD
ENDBRANCH   6  14
BRANCH   4  16
ATOM     16  C19 UNK     0       1.696  -1.358  -0.951  0.00  0.00    +0.000 C 
BRANCH  16  17
ATOM     17  C21 UNK     0       3.159  -1.200  -0.618  0.00  0.00    +0.000 C 
ATOM     18  C22 UNK     0       3.907  -0.125  -0.914  0.00  0.00    +0.000 C 
ATOM     19  C24 UNK     0       3.542   1.064  -1.659  0.00  0.00    +0.000 C 
ATOM     20  O3  UNK     0       4.613   1.924  -1.759  0.00  0.00    +0.000 OA
ATOM     21  O5  UNK     0       2.425   1.298  -2.188  0.00  0.00    +0.000 OA
ATOM     22  C25 UNK     0       5.762   1.399  -1.106  0.00  0.00    +0.000 C 
ATOM     23  C23 UNK     0       5.349   0.017  -0.537  0.00  0.00    +0.000 C 
BRANCH  23  24
ATOM     24  O4  UNK     0       5.481  -0.009   0.859  0.00  0.00    +0.000 OA
ATOM     25  H55 UNK     0       6.451  -0.100   1.046  0.00  0.00    +0.000 HD
ENDBRANCH  23  24
ENDBRANCH  16  17
ENDBRANCH   4  16
BRANCH   3  26
ATOM     26  C17 UNK     0      -4.010  -0.187   1.098  0.00  0.00    +0.000 C 
BRANCH  26  27
ATOM     27  O2  UNK     0      -5.340  -0.007   0.681  0.00  0.00    +0.000 OA
ATOM     28  H51 UNK     0      -5.755   0.653   1.295  0.00  0.00    +0.000 HD
ENDBRANCH  26  27
ENDBRANCH   3  26
TORSDOF 6
