REMARK  Name = C:\Users\Maximilian\Desktop\Conformers\converted_pdb\conformers_pdb\Andrographolide_conf_67.pdb
REMARK  8 active torsions:
REMARK  status: ('A' for Active; 'I' for Inactive)
REMARK    1  A    between atoms: C6_1  and  C14_9
REMARK    2  A    between atoms: C8_3  and  C18_12
REMARK    3  A    between atoms: C8_3  and  C17_24
REMARK    4  A    between atoms: C9_4  and  C19_14
REMARK    5  A    between atoms: C11_6  and  O1_27
REMARK    6  A    between atoms: C19_14  and  C21_15
REMARK    7  A    between atoms: C23_21  and  O4_22
REMARK    8  A    between atoms: C17_24  and  O2_25
REMARK                            x       y       z     vdW  Elec       q    Type
REMARK                         _______ _______ _______ _____ _____    ______ ____
ROOT
ATOM      1  C6  UNK     0      -0.312   0.539   0.223  0.00  0.00    +0.000 C 
ATOM      2  C7  UNK     0      -1.682   0.250  -0.512  0.00  0.00    +0.000 C 
ATOM      3  C8  UNK     0      -2.987   0.019   0.384  0.00  0.00    +0.000 C 
ATOM      4  C9  UNK     0       0.887   0.273  -0.802  0.00  0.00    +0.000 C 
ATOM      5  C10 UNK     0      -0.165  -0.452   1.421  0.00  0.00    +0.000 C 
ATOM      6  C11 UNK     0      -2.626  -0.960   1.547  0.00  0.00    +0.000 C 
ATOM      7  C12 UNK     0      -1.862   1.246  -1.680  0.00  0.00    +0.000 C 
ATOM      8  C13 UNK     0      -1.390  -0.505   2.330  0.00  0.00    +0.000 C 
ATOM      9  C14 UNK     0      -0.243   2.000   0.762  0.00  0.00    +0.000 C 
ATOM     10  C15 UNK     0      -0.790   1.070  -2.758  0.00  0.00    +0.000 C 
ATOM     11  C16 UNK     0       0.532   0.503  -2.281  0.00  0.00    +0.000 C 
ATOM     12  C18 UNK     0      -4.068  -0.705  -0.476  0.00  0.00    +0.000 C 
ATOM     13  C20 UNK     0       1.370   0.049  -3.237  0.00  0.00    +0.000 C 
ENDROOT
BRANCH   6  14
ATOM     14  O1  UNK     0      -3.712  -1.100   2.433  0.00  0.00    +0.000 OA
ATOM     15  H47 UNK     0      -3.616  -1.982   2.879  0.00  0.00    +0.000 HD
ENDBRANCH   6  14
BRANCH   4  16
ATOM     16  C19 UNK     0       2.233   1.002  -0.471  0.00  0.00    +0.000 C 
BRANCH  16  17
ATOM     17  C21 UNK     0       2.881   0.533   0.803  0.00  0.00    +0.000 C 
ATOM     18  C22 UNK     0       3.724  -0.509   0.876  0.00  0.00    +0.000 C 
ATOM     19  C24 UNK     0       4.410  -0.933   2.076  0.00  0.00    +0.000 C 
ATOM     20  O3  UNK     0       5.317  -1.934   1.804  0.00  0.00    +0.000 OA
ATOM     21  O5  UNK     0       4.208  -0.479   3.234  0.00  0.00    +0.000 OA
ATOM     22  C25 UNK     0       5.328  -2.255   0.414  0.00  0.00    +0.000 C 
ATOM     23  C23 UNK     0       4.236  -1.369  -0.249  0.00  0.00    +0.000 C 
BRANCH  23  24
ATOM     24  O4  UNK     0       3.215  -2.159  -0.810  0.00  0.00    +0.000 OA
ATOM     25  H55 UNK     0       2.793  -2.676  -0.073  0.00  0.00    +0.000 HD
ENDBRANCH  23  24
ENDBRANCH  16  17
ENDBRANCH   4  16
BRANCH   3  26
ATOM     26  C17 UNK     0      -3.663   1.306   0.978  0.00  0.00    +0.000 C 
BRANCH  26  27
ATOM     27  O2  UNK     0      -3.857   2.320   0.028  0.00  0.00    +0.000 OA
ATOM     28  H51 UNK     0      -4.696   2.114  -0.455  0.00  0.00    +0.000 HD
ENDBRANCH  26  27
ENDBRANCH   3  26
TORSDOF 6
