REMARK  Name = C:\Users\Maximilian\Desktop\Conformers\converted_pdb\conformers_pdb\Andrographolide_conf_1.pdb
REMARK  8 active torsions:
REMARK  status: ('A' for Active; 'I' for Inactive)
REMARK    1  A    between atoms: C6_1  and  C14_9
REMARK    2  A    between atoms: C8_3  and  C18_12
REMARK    3  A    between atoms: C8_3  and  C17_24
REMARK    4  A    between atoms: C9_4  and  C19_14
REMARK    5  A    between atoms: C11_6  and  O1_27
REMARK    6  A    between atoms: C19_14  and  C21_15
REMARK    7  A    between atoms: C23_21  and  O4_22
REMARK    8  A    between atoms: C17_24  and  O2_25
REMARK                            x       y       z     vdW  Elec       q    Type
REMARK                         _______ _______ _______ _____ _____    ______ ____
ROOT
ATOM      1  C6  UNK     0      -0.536   0.413   0.215  0.00  0.00    +0.000 C 
ATOM      2  C7  UNK     0      -1.388   0.163  -1.102  0.00  0.00    +0.000 C 
ATOM      3  C8  UNK     0      -2.668  -0.779  -0.953  0.00  0.00    +0.000 C 
ATOM      4  C9  UNK     0       0.781   1.214  -0.181  0.00  0.00    +0.000 C 
ATOM      5  C10 UNK     0      -0.149  -0.980   0.834  0.00  0.00    +0.000 C 
ATOM      6  C11 UNK     0      -2.481  -1.830   0.203  0.00  0.00    +0.000 C 
ATOM      7  C12 UNK     0      -1.669   1.470  -1.898  0.00  0.00    +0.000 C 
ATOM      8  C13 UNK     0      -1.005  -2.184   0.400  0.00  0.00    +0.000 C 
ATOM      9  C14 UNK     0      -1.329   1.254   1.259  0.00  0.00    +0.000 C 
ATOM     10  C15 UNK     0      -0.373   2.195  -2.256  0.00  0.00    +0.000 C 
ATOM     11  C16 UNK     0       0.395   2.455  -0.991  0.00  0.00    +0.000 C 
ATOM     12  C18 UNK     0      -2.831  -1.574  -2.284  0.00  0.00    +0.000 C 
ATOM     13  C20 UNK     0       0.510   3.720  -0.539  0.00  0.00    +0.000 C 
ENDROOT
BRANCH   6  14
ATOM     14  O1  UNK     0      -3.026  -1.388   1.421  0.00  0.00    +0.000 OA
ATOM     15  H47 UNK     0      -3.096  -2.179   2.021  0.00  0.00    +0.000 HD
ENDBRANCH   6  14
BRANCH   4  16
ATOM     16  C19 UNK     0       1.780   1.553   0.977  0.00  0.00    +0.000 C 
BRANCH  16  17
ATOM     17  C21 UNK     0       2.519   0.370   1.538  0.00  0.00    +0.000 C 
ATOM     18  C22 UNK     0       3.539  -0.253   0.926  0.00  0.00    +0.000 C 
ATOM     19  C24 UNK     0       4.161   0.059  -0.345  0.00  0.00    +0.000 C 
ATOM     20  O3  UNK     0       5.162  -0.838  -0.628  0.00  0.00    +0.000 OA
ATOM     21  O5  UNK     0       3.866   1.022  -1.100  0.00  0.00    +0.000 OA
ATOM     22  C25 UNK     0       5.299  -1.805   0.405  0.00  0.00    +0.000 C 
ATOM     23  C23 UNK     0       4.256  -1.435   1.491  0.00  0.00    +0.000 C 
BRANCH  23  24
ATOM     24  O4  UNK     0       4.891  -1.074   2.687  0.00  0.00    +0.000 OA
ATOM     25  H55 UNK     0       5.236  -1.912   3.094  0.00  0.00    +0.000 HD
ENDBRANCH  23  24
ENDBRANCH  16  17
ENDBRANCH   4  16
BRANCH   3  26
ATOM     26  C17 UNK     0      -3.991   0.032  -0.749  0.00  0.00    +0.000 C 
BRANCH  26  27
ATOM     27  O2  UNK     0      -5.076  -0.812  -0.450  0.00  0.00    +0.000 OA
ATOM     28  H51 UNK     0      -5.494  -1.065  -1.317  0.00  0.00    +0.000 HD
ENDBRANCH  26  27
ENDBRANCH   3  26
TORSDOF 6
