REMARK  Name = C:\Users\Maximilian\Desktop\Conformers\converted_pdb\conformers_pdb\Andrographolide_conf_46.pdb
REMARK  8 active torsions:
REMARK  status: ('A' for Active; 'I' for Inactive)
REMARK    1  A    between atoms: C6_1  and  C14_9
REMARK    2  A    between atoms: C8_3  and  C18_12
REMARK    3  A    between atoms: C8_3  and  C17_24
REMARK    4  A    between atoms: C9_4  and  C19_14
REMARK    5  A    between atoms: C11_6  and  O1_27
REMARK    6  A    between atoms: C19_14  and  C21_15
REMARK    7  A    between atoms: C23_21  and  O4_22
REMARK    8  A    between atoms: C17_24  and  O2_25
REMARK                            x       y       z     vdW  Elec       q    Type
REMARK                         _______ _______ _______ _____ _____    ______ ____
ROOT
ATOM      1  C6  UNK     0      -0.811  -0.306  -0.457  0.00  0.00    +0.000 C 
ATOM      2  C7  UNK     0      -1.869  -0.025   0.699  0.00  0.00    +0.000 C 
ATOM      3  C8  UNK     0      -3.336   0.336   0.231  0.00  0.00    +0.000 C 
ATOM      4  C9  UNK     0       0.616  -0.053   0.191  0.00  0.00    +0.000 C 
ATOM      5  C10 UNK     0      -1.137   0.627  -1.678  0.00  0.00    +0.000 C 
ATOM      6  C11 UNK     0      -3.271   1.622  -0.696  0.00  0.00    +0.000 C 
ATOM      7  C12 UNK     0      -1.716  -1.034   1.865  0.00  0.00    +0.000 C 
ATOM      8  C13 UNK     0      -1.867   1.911  -1.288  0.00  0.00    +0.000 C 
ATOM      9  C14 UNK     0      -0.840  -1.777  -0.985  0.00  0.00    +0.000 C 
ATOM     10  C15 UNK     0      -0.313  -0.905   2.483  0.00  0.00    +0.000 C 
ATOM     11  C16 UNK     0       0.760  -0.986   1.417  0.00  0.00    +0.000 C 
ATOM     12  C18 UNK     0      -4.201   0.704   1.472  0.00  0.00    +0.000 C 
ATOM     13  C20 UNK     0       1.701  -1.948   1.528  0.00  0.00    +0.000 C 
ENDROOT
BRANCH   6  14
ATOM     14  O1  UNK     0      -4.216   1.546  -1.736  0.00  0.00    +0.000 OA
ATOM     15  H47 UNK     0      -4.390   2.474  -2.047  0.00  0.00    +0.000 HD
ENDBRANCH   6  14
BRANCH   4  16
ATOM     16  C19 UNK     0       1.828  -0.116  -0.792  0.00  0.00    +0.000 C 
BRANCH  16  17
ATOM     17  C21 UNK     0       3.116   0.309  -0.130  0.00  0.00    +0.000 C 
ATOM     18  C22 UNK     0       4.303   0.294  -0.754  0.00  0.00    +0.000 C 
ATOM     19  C24 UNK     0       4.596  -0.118  -2.112  0.00  0.00    +0.000 C 
ATOM     20  O3  UNK     0       5.947  -0.039  -2.362  0.00  0.00    +0.000 OA
ATOM     21  O5  UNK     0       3.757  -0.494  -2.973  0.00  0.00    +0.000 OA
ATOM     22  C25 UNK     0       6.661   0.406  -1.213  0.00  0.00    +0.000 C 
ATOM     23  C23 UNK     0       5.601   0.687  -0.118  0.00  0.00    +0.000 C 
BRANCH  23  24
ATOM     24  O4  UNK     0       5.593   2.053   0.205  0.00  0.00    +0.000 OA
ATOM     25  H55 UNK     0       5.137   2.136   1.082  0.00  0.00    +0.000 HD
ENDBRANCH  23  24
ENDBRANCH  16  17
ENDBRANCH   4  16
BRANCH   3  26
ATOM     26  C17 UNK     0      -4.021  -0.866  -0.492  0.00  0.00    +0.000 C 
BRANCH  26  27
ATOM     27  O2  UNK     0      -5.411  -0.684  -0.605  0.00  0.00    +0.000 OA
ATOM     28  H51 UNK     0      -5.836  -1.180   0.142  0.00  0.00    +0.000 HD
ENDBRANCH  26  27
ENDBRANCH   3  26
TORSDOF 6
