REMARK  Name = C:\Users\Maximilian\Desktop\Conformers\converted_pdb\conformers_pdb\Andrographolide_conf_33.pdb
REMARK  8 active torsions:
REMARK  status: ('A' for Active; 'I' for Inactive)
REMARK    1  A    between atoms: C6_1  and  C14_9
REMARK    2  A    between atoms: C8_3  and  C18_12
REMARK    3  A    between atoms: C8_3  and  C17_24
REMARK    4  A    between atoms: C9_4  and  C19_14
REMARK    5  A    between atoms: C11_6  and  O1_27
REMARK    6  A    between atoms: C19_14  and  C21_15
REMARK    7  A    between atoms: C23_21  and  O4_22
REMARK    8  A    between atoms: C17_24  and  O2_25
REMARK                            x       y       z     vdW  Elec       q    Type
REMARK                         _______ _______ _______ _____ _____    ______ ____
ROOT
ATOM      1  C6  UNK     0      -0.595  -0.262   0.112  0.00  0.00    +0.000 C 
ATOM      2  C7  UNK     0      -1.857   0.045  -0.803  0.00  0.00    +0.000 C 
ATOM      3  C8  UNK     0      -3.284  -0.133  -0.119  0.00  0.00    +0.000 C 
ATOM      4  C9  UNK     0       0.652  -0.378  -0.853  0.00  0.00    +0.000 C 
ATOM      5  C10 UNK     0      -0.805  -1.632   0.817  0.00  0.00    +0.000 C 
ATOM      6  C11 UNK     0      -3.319  -1.535   0.581  0.00  0.00    +0.000 C 
ATOM      7  C12 UNK     0      -1.656   1.357  -1.628  0.00  0.00    +0.000 C 
ATOM      8  C13 UNK     0      -2.145  -1.741   1.545  0.00  0.00    +0.000 C 
ATOM      9  C14 UNK     0      -0.359   0.872   1.169  0.00  0.00    +0.000 C 
ATOM     10  C15 UNK     0      -0.382   1.307  -2.487  0.00  0.00    +0.000 C 
ATOM     11  C16 UNK     0       0.805   0.915  -1.642  0.00  0.00    +0.000 C 
ATOM     12  C18 UNK     0      -4.383  -0.150  -1.219  0.00  0.00    +0.000 C 
ATOM     13  C20 UNK     0       1.858   1.744  -1.531  0.00  0.00    +0.000 C 
ENDROOT
BRANCH   6  14
ATOM     14  O1  UNK     0      -4.517  -1.716   1.299  0.00  0.00    +0.000 OA
ATOM     15  H47 UNK     0      -5.126  -2.258   0.733  0.00  0.00    +0.000 HD
ENDBRANCH   6  14
BRANCH   4  16
ATOM     16  C19 UNK     0       1.970  -1.019  -0.309  0.00  0.00    +0.000 C 
BRANCH  16  17
ATOM     17  C21 UNK     0       2.538  -0.425   0.957  0.00  0.00    +0.000 C 
ATOM     18  C22 UNK     0       3.839  -0.140   1.125  0.00  0.00    +0.000 C 
ATOM     19  C24 UNK     0       4.421   0.384   2.337  0.00  0.00    +0.000 C 
ATOM     20  O3  UNK     0       5.774   0.587   2.185  0.00  0.00    +0.000 OA
ATOM     21  O5  UNK     0       3.796   0.636   3.401  0.00  0.00    +0.000 OA
ATOM     22  C25 UNK     0       6.203   0.236   0.873  0.00  0.00    +0.000 C 
ATOM     23  C23 UNK     0       4.951  -0.307   0.133  0.00  0.00    +0.000 C 
BRANCH  23  24
ATOM     24  O4  UNK     0       5.112  -1.667  -0.175  0.00  0.00    +0.000 OA
ATOM     25  H55 UNK     0       5.710  -1.705  -0.967  0.00  0.00    +0.000 HD
ENDBRANCH  23  24
ENDBRANCH  16  17
ENDBRANCH   4  16
BRANCH   3  26
ATOM     26  C17 UNK     0      -3.673   0.978   0.906  0.00  0.00    +0.000 C 
BRANCH  26  27
ATOM     27  O2  UNK     0      -3.655   2.251   0.321  0.00  0.00    +0.000 OA
ATOM     28  H51 UNK     0      -3.885   2.893   1.042  0.00  0.00    +0.000 HD
ENDBRANCH  26  27
ENDBRANCH   3  26
TORSDOF 6
