REMARK  Name = C:\Users\Maximilian\Desktop\Conformers\converted_pdb\conformers_pdb\Andrographolide_conf_7.pdb
REMARK  8 active torsions:
REMARK  status: ('A' for Active; 'I' for Inactive)
REMARK    1  A    between atoms: C6_1  and  C14_9
REMARK    2  A    between atoms: C8_3  and  C18_12
REMARK    3  A    between atoms: C8_3  and  C17_24
REMARK    4  A    between atoms: C9_4  and  C19_14
REMARK    5  A    between atoms: C11_6  and  O1_27
REMARK    6  A    between atoms: C19_14  and  C21_15
REMARK    7  A    between atoms: C23_21  and  O4_22
REMARK    8  A    between atoms: C17_24  and  O2_25
REMARK                            x       y       z     vdW  Elec       q    Type
REMARK                         _______ _______ _______ _____ _____    ______ ____
ROOT
ATOM      1  C6  UNK     0      -0.639  -0.016  -0.814  0.00  0.00    +0.000 C 
ATOM      2  C7  UNK     0      -1.708  -0.661   0.154  0.00  0.00    +0.000 C 
ATOM      3  C8  UNK     0      -3.113   0.061   0.219  0.00  0.00    +0.000 C 
ATOM      4  C9  UNK     0       0.788  -0.381  -0.222  0.00  0.00    +0.000 C 
ATOM      5  C10 UNK     0      -0.841   1.535  -0.866  0.00  0.00    +0.000 C 
ATOM      6  C11 UNK     0      -2.889   1.566   0.667  0.00  0.00    +0.000 C 
ATOM      7  C12 UNK     0      -1.709  -2.207   0.024  0.00  0.00    +0.000 C 
ATOM      8  C13 UNK     0      -1.456   2.102   0.414  0.00  0.00    +0.000 C 
ATOM      9  C14 UNK     0      -0.763  -0.547  -2.279  0.00  0.00    +0.000 C 
ATOM     10  C15 UNK     0      -0.279  -2.806   0.026  0.00  0.00    +0.000 C 
ATOM     11  C16 UNK     0       0.802  -1.796   0.386  0.00  0.00    +0.000 C 
ATOM     12  C18 UNK     0      -3.989  -0.631   1.302  0.00  0.00    +0.000 C 
ATOM     13  C20 UNK     0       1.705  -2.117   1.330  0.00  0.00    +0.000 C 
ENDROOT
BRANCH   6  14
ATOM     14  O1  UNK     0      -3.827   2.422   0.060  0.00  0.00    +0.000 OA
ATOM     15  H47 UNK     0      -3.890   3.238   0.622  0.00  0.00    +0.000 HD
ENDBRANCH   6  14
BRANCH   4  16
ATOM     16  C19 UNK     0       1.955  -0.194  -1.239  0.00  0.00    +0.000 C 
BRANCH  16  17
ATOM     17  C21 UNK     0       3.321  -0.306  -0.615  0.00  0.00    +0.000 C 
ATOM     18  C22 UNK     0       3.914   0.645   0.125  0.00  0.00    +0.000 C 
ATOM     19  C24 UNK     0       3.439   1.976   0.445  0.00  0.00    +0.000 C 
ATOM     20  O3  UNK     0       4.370   2.657   1.197  0.00  0.00    +0.000 OA
ATOM     21  O5  UNK     0       2.346   2.484   0.086  0.00  0.00    +0.000 OA
ATOM     22  C25 UNK     0       5.532   1.867   1.423  0.00  0.00    +0.000 C 
ATOM     23  C23 UNK     0       5.267   0.496   0.753  0.00  0.00    +0.000 C 
BRANCH  23  24
ATOM     24  O4  UNK     0       5.248  -0.518   1.724  0.00  0.00    +0.000 OA
ATOM     25  H55 UNK     0       5.367  -1.377   1.242  0.00  0.00    +0.000 HD
ENDBRANCH  23  24
ENDBRANCH  16  17
ENDBRANCH   4  16
BRANCH   3  26
ATOM     26  C17 UNK     0      -3.882  -0.024  -1.137  0.00  0.00    +0.000 C 
BRANCH  26  27
ATOM     27  O2  UNK     0      -5.232   0.331  -0.981  0.00  0.00    +0.000 OA
ATOM     28  H51 UNK     0      -5.650   0.244  -1.877  0.00  0.00    +0.000 HD
ENDBRANCH  26  27
ENDBRANCH   3  26
TORSDOF 6
