REMARK  Name = C:\Users\Maximilian\Desktop\Conformers\converted_pdb\conformers_pdb\Andrographolide_conf_36.pdb
REMARK  8 active torsions:
REMARK  status: ('A' for Active; 'I' for Inactive)
REMARK    1  A    between atoms: C6_1  and  C14_9
REMARK    2  A    between atoms: C8_3  and  C18_12
REMARK    3  A    between atoms: C8_3  and  C17_24
REMARK    4  A    between atoms: C9_4  and  C19_14
REMARK    5  A    between atoms: C11_6  and  O1_27
REMARK    6  A    between atoms: C19_14  and  C21_15
REMARK    7  A    between atoms: C23_21  and  O4_22
REMARK    8  A    between atoms: C17_24  and  O2_25
REMARK                            x       y       z     vdW  Elec       q    Type
REMARK                         _______ _______ _______ _____ _____    ______ ____
ROOT
ATOM      1  C6  UNK     0      -0.506   0.213  -0.660  0.00  0.00    +0.000 C 
ATOM      2  C7  UNK     0      -1.497  -0.221   0.507  0.00  0.00    +0.000 C 
ATOM      3  C8  UNK     0      -2.692   0.766   0.857  0.00  0.00    +0.000 C 
ATOM      4  C9  UNK     0       0.758  -0.735  -0.569  0.00  0.00    +0.000 C 
ATOM      5  C10 UNK     0      -0.074   1.690  -0.427  0.00  0.00    +0.000 C 
ATOM      6  C11 UNK     0      -2.111   2.214   0.995  0.00  0.00    +0.000 C 
ATOM      7  C12 UNK     0      -1.902  -1.723   0.398  0.00  0.00    +0.000 C 
ATOM      8  C13 UNK     0      -1.250   2.646  -0.204  0.00  0.00    +0.000 C 
ATOM      9  C14 UNK     0      -1.126   0.079  -2.082  0.00  0.00    +0.000 C 
ATOM     10  C15 UNK     0      -0.669  -2.635   0.409  0.00  0.00    +0.000 C 
ATOM     11  C16 UNK     0       0.297  -2.192  -0.658  0.00  0.00    +0.000 C 
ATOM     12  C18 UNK     0      -3.268   0.374   2.252  0.00  0.00    +0.000 C 
ATOM     13  C20 UNK     0       0.546  -3.004  -1.704  0.00  0.00    +0.000 C 
ENDROOT
BRANCH   6  14
ATOM     14  O1  UNK     0      -3.118   3.164   1.256  0.00  0.00    +0.000 OA
ATOM     15  H47 UNK     0      -3.571   3.381   0.400  0.00  0.00    +0.000 HD
ENDBRANCH   6  14
BRANCH   4  16
ATOM     16  C19 UNK     0       1.946  -0.368  -1.509  0.00  0.00    +0.000 C 
BRANCH  16  17
ATOM     17  C21 UNK     0       3.184  -1.167  -1.185  0.00  0.00    +0.000 C 
ATOM     18  C22 UNK     0       4.047  -0.838  -0.211  0.00  0.00    +0.000 C 
ATOM     19  C24 UNK     0       5.214  -1.605   0.153  0.00  0.00    +0.000 C 
ATOM     20  O3  UNK     0       5.874  -1.023   1.212  0.00  0.00    +0.000 OA
ATOM     21  O5  UNK     0       5.595  -2.668  -0.404  0.00  0.00    +0.000 OA
ATOM     22  C25 UNK     0       5.202   0.153   1.653  0.00  0.00    +0.000 C 
ATOM     23  C23 UNK     0       4.005   0.364   0.687  0.00  0.00    +0.000 C 
BRANCH  23  24
ATOM     24  O4  UNK     0       4.189   1.531  -0.070  0.00  0.00    +0.000 OA
ATOM     25  H55 UNK     0       3.941   2.290   0.520  0.00  0.00    +0.000 HD
ENDBRANCH  23  24
ENDBRANCH  16  17
ENDBRANCH   4  16
BRANCH   3  26
ATOM     26  C17 UNK     0      -3.861   0.712  -0.181  0.00  0.00    +0.000 C 
BRANCH  26  27
ATOM     27  O2  UNK     0      -5.046   1.241   0.356  0.00  0.00    +0.000 OA
ATOM     28  H51 UNK     0      -5.739   1.153  -0.349  0.00  0.00    +0.000 HD
ENDBRANCH  26  27
ENDBRANCH   3  26
TORSDOF 6
