REMARK  Name = C:\Users\Maximilian\Desktop\Conformers\converted_pdb\conformers_pdb\Andrographolide_conf_25.pdb
REMARK  8 active torsions:
REMARK  status: ('A' for Active; 'I' for Inactive)
REMARK    1  A    between atoms: C6_1  and  C14_9
REMARK    2  A    between atoms: C8_3  and  C18_12
REMARK    3  A    between atoms: C8_3  and  C17_24
REMARK    4  A    between atoms: C9_4  and  C19_14
REMARK    5  A    between atoms: C11_6  and  O1_27
REMARK    6  A    between atoms: C19_14  and  C21_15
REMARK    7  A    between atoms: C23_21  and  O4_22
REMARK    8  A    between atoms: C17_24  and  O2_25
REMARK                            x       y       z     vdW  Elec       q    Type
REMARK                         _______ _______ _______ _____ _____    ______ ____
ROOT
ATOM      1  C6  UNK     0      -0.637  -0.068  -0.648  0.00  0.00    +0.000 C 
ATOM      2  C7  UNK     0      -1.398  -0.295   0.730  0.00  0.00    +0.000 C 
ATOM      3  C8  UNK     0      -2.723   0.545   0.981  0.00  0.00    +0.000 C 
ATOM      4  C9  UNK     0       0.796  -0.722  -0.495  0.00  0.00    +0.000 C 
ATOM      5  C10 UNK     0      -0.495   1.462  -0.893  0.00  0.00    +0.000 C 
ATOM      6  C11 UNK     0      -2.440   2.044   0.628  0.00  0.00    +0.000 C 
ATOM      7  C12 UNK     0      -1.504  -1.808   1.091  0.00  0.00    +0.000 C 
ATOM      8  C13 UNK     0      -1.815   2.226  -0.758  0.00  0.00    +0.000 C 
ATOM      9  C14 UNK     0      -1.351  -0.717  -1.870  0.00  0.00    +0.000 C 
ATOM     10  C15 UNK     0      -0.119  -2.466   1.157  0.00  0.00    +0.000 C 
ATOM     11  C16 UNK     0       0.631  -2.197  -0.122  0.00  0.00    +0.000 C 
ATOM     12  C18 UNK     0      -3.061   0.493   2.503  0.00  0.00    +0.000 C 
ATOM     13  C20 UNK     0       0.936  -3.224  -0.938  0.00  0.00    +0.000 C 
ENDROOT
BRANCH   6  14
ATOM     14  O1  UNK     0      -3.620   2.809   0.685  0.00  0.00    +0.000 OA
ATOM     15  H47 UNK     0      -3.626   3.289   1.554  0.00  0.00    +0.000 HD
ENDBRANCH   6  14
BRANCH   4  16
ATOM     16  C19 UNK     0       1.793  -0.451  -1.663  0.00  0.00    +0.000 C 
BRANCH  16  17
ATOM     17  C21 UNK     0       3.189  -0.910  -1.326  0.00  0.00    +0.000 C 
ATOM     18  C22 UNK     0       4.056  -0.182  -0.604  0.00  0.00    +0.000 C 
ATOM     19  C24 UNK     0       5.382  -0.610  -0.226  0.00  0.00    +0.000 C 
ATOM     20  O3  UNK     0       6.010   0.348   0.540  0.00  0.00    +0.000 OA
ATOM     21  O5  UNK     0       5.914  -1.708  -0.538  0.00  0.00    +0.000 OA
ATOM     22  C25 UNK     0       5.164   1.473   0.758  0.00  0.00    +0.000 C 
ATOM     23  C23 UNK     0       3.865   1.203  -0.049  0.00  0.00    +0.000 C 
BRANCH  23  24
ATOM     24  O4  UNK     0       3.698   2.151  -1.075  0.00  0.00    +0.000 OA
ATOM     25  H55 UNK     0       4.479   2.079  -1.685  0.00  0.00    +0.000 HD
ENDBRANCH  23  24
ENDBRANCH  16  17
ENDBRANCH   4  16
BRANCH   3  26
ATOM     26  C17 UNK     0      -3.960  -0.003   0.193  0.00  0.00    +0.000 C 
BRANCH  26  27
ATOM     27  O2  UNK     0      -5.167   0.530   0.680  0.00  0.00    +0.000 OA
ATOM     28  H51 UNK     0      -5.536  -0.121   1.332  0.00  0.00    +0.000 HD
ENDBRANCH  26  27
ENDBRANCH   3  26
TORSDOF 6
