REMARK  Name = C:\Users\Maximilian\Desktop\Conformers\converted_pdb\conformers_pdb\Andrographolide_conf_47.pdb
REMARK  8 active torsions:
REMARK  status: ('A' for Active; 'I' for Inactive)
REMARK    1  A    between atoms: C6_1  and  C14_9
REMARK    2  A    between atoms: C8_3  and  C18_12
REMARK    3  A    between atoms: C8_3  and  C17_24
REMARK    4  A    between atoms: C9_4  and  C19_14
REMARK    5  A    between atoms: C11_6  and  O1_27
REMARK    6  A    between atoms: C19_14  and  C21_15
REMARK    7  A    between atoms: C23_21  and  O4_22
REMARK    8  A    between atoms: C17_24  and  O2_25
REMARK                            x       y       z     vdW  Elec       q    Type
REMARK                         _______ _______ _______ _____ _____    ______ ____
ROOT
ATOM      1  C6  UNK     0      -0.573  -0.059   0.729  0.00  0.00    +0.000 C 
ATOM      2  C7  UNK     0      -1.703   0.533  -0.212  0.00  0.00    +0.000 C 
ATOM      3  C8  UNK     0      -3.151  -0.146  -0.191  0.00  0.00    +0.000 C 
ATOM      4  C9  UNK     0       0.837   0.376   0.126  0.00  0.00    +0.000 C 
ATOM      5  C10 UNK     0      -0.631  -1.616   0.733  0.00  0.00    +0.000 C 
ATOM      6  C11 UNK     0      -2.975  -1.702  -0.155  0.00  0.00    +0.000 C 
ATOM      7  C12 UNK     0      -1.705   2.089  -0.139  0.00  0.00    +0.000 C 
ATOM      8  C13 UNK     0      -2.034  -2.166   0.967  0.00  0.00    +0.000 C 
ATOM      9  C14 UNK     0      -0.718   0.443   2.200  0.00  0.00    +0.000 C 
ATOM     10  C15 UNK     0      -0.301   2.731  -0.191  0.00  0.00    +0.000 C 
ATOM     11  C16 UNK     0       0.786   1.747  -0.553  0.00  0.00    +0.000 C 
ATOM     12  C18 UNK     0      -3.877   0.182  -1.528  0.00  0.00    +0.000 C 
ATOM     13  C20 UNK     0       1.659   2.060  -1.527  0.00  0.00    +0.000 C 
ENDROOT
BRANCH   6  14
ATOM     14  O1  UNK     0      -4.212  -2.378  -0.097  0.00  0.00    +0.000 OA
ATOM     15  H47 UNK     0      -4.487  -2.456   0.854  0.00  0.00    +0.000 HD
ENDBRANCH   6  14
BRANCH   4  16
ATOM     16  C19 UNK     0       2.008   0.301   1.149  0.00  0.00    +0.000 C 
BRANCH  16  17
ATOM     17  C21 UNK     0       3.366   0.404   0.508  0.00  0.00    +0.000 C 
ATOM     18  C22 UNK     0       3.976  -0.591  -0.156  0.00  0.00    +0.000 C 
ATOM     19  C24 UNK     0       3.531  -1.955  -0.359  0.00  0.00    +0.000 C 
ATOM     20  O3  UNK     0       4.461  -2.668  -1.081  0.00  0.00    +0.000 OA
ATOM     21  O5  UNK     0       2.465  -2.464   0.077  0.00  0.00    +0.000 OA
ATOM     22  C25 UNK     0       5.587  -1.864  -1.412  0.00  0.00    +0.000 C 
ATOM     23  C23 UNK     0       5.314  -0.460  -0.812  0.00  0.00    +0.000 C 
BRANCH  23  24
ATOM     24  O4  UNK     0       5.256   0.513  -1.821  0.00  0.00    +0.000 OA
ATOM     25  H55 UNK     0       6.193   0.681  -2.102  0.00  0.00    +0.000 HD
ENDBRANCH  23  24
ENDBRANCH  16  17
ENDBRANCH   4  16
BRANCH   3  26
ATOM     26  C17 UNK     0      -4.101   0.312   0.969  0.00  0.00    +0.000 C 
BRANCH  26  27
ATOM     27  O2  UNK     0      -4.385   1.687   0.930  0.00  0.00    +0.000 OA
ATOM     28  H51 UNK     0      -5.212   1.807   0.393  0.00  0.00    +0.000 HD
ENDBRANCH  26  27
ENDBRANCH   3  26
TORSDOF 6
