REMARK  Name = C:\Users\Maximilian\Desktop\Conformers\converted_pdb\conformers_pdb\Andrographolide_conf_52.pdb
REMARK  8 active torsions:
REMARK  status: ('A' for Active; 'I' for Inactive)
REMARK    1  A    between atoms: C6_1  and  C14_9
REMARK    2  A    between atoms: C8_3  and  C18_12
REMARK    3  A    between atoms: C8_3  and  C17_24
REMARK    4  A    between atoms: C9_4  and  C19_14
REMARK    5  A    between atoms: C11_6  and  O1_27
REMARK    6  A    between atoms: C19_14  and  C21_15
REMARK    7  A    between atoms: C23_21  and  O4_22
REMARK    8  A    between atoms: C17_24  and  O2_25
REMARK                            x       y       z     vdW  Elec       q    Type
REMARK                         _______ _______ _______ _____ _____    ______ ____
ROOT
ATOM      1  C6  UNK     0      -0.741  -0.371   0.587  0.00  0.00    +0.000 C 
ATOM      2  C7  UNK     0      -1.702   0.543  -0.270  0.00  0.00    +0.000 C 
ATOM      3  C8  UNK     0      -3.252   0.286  -0.081  0.00  0.00    +0.000 C 
ATOM      4  C9  UNK     0       0.623  -0.475  -0.215  0.00  0.00    +0.000 C 
ATOM      5  C10 UNK     0      -1.378  -1.789   0.769  0.00  0.00    +0.000 C 
ATOM      6  C11 UNK     0      -3.560  -1.227  -0.443  0.00  0.00    +0.000 C 
ATOM      7  C12 UNK     0      -1.220   2.017  -0.257  0.00  0.00    +0.000 C 
ATOM      8  C13 UNK     0      -2.334  -2.167  -0.364  0.00  0.00    +0.000 C 
ATOM      9  C14 UNK     0      -0.475   0.214   2.013  0.00  0.00    +0.000 C 
ATOM     10  C15 UNK     0       0.305   2.149  -0.506  0.00  0.00    +0.000 C 
ATOM     11  C16 UNK     0       0.970   0.844  -0.924  0.00  0.00    +0.000 C 
ATOM     12  C18 UNK     0      -4.038   1.181  -1.080  0.00  0.00    +0.000 C 
ATOM     13  C20 UNK     0       1.799   0.844  -1.982  0.00  0.00    +0.000 C 
ENDROOT
BRANCH   6  14
ATOM     14  O1  UNK     0      -4.589  -1.758   0.357  0.00  0.00    +0.000 OA
ATOM     15  H47 UNK     0      -5.449  -1.466  -0.044  0.00  0.00    +0.000 HD
ENDBRANCH   6  14
BRANCH   4  16
ATOM     16  C19 UNK     0       1.819  -0.971   0.648  0.00  0.00    +0.000 C 
BRANCH  16  17
ATOM     17  C21 UNK     0       2.941  -1.519  -0.195  0.00  0.00    +0.000 C 
ATOM     18  C22 UNK     0       4.188  -1.024  -0.190  0.00  0.00    +0.000 C 
ATOM     19  C24 UNK     0       5.285  -1.539  -0.972  0.00  0.00    +0.000 C 
ATOM     20  O3  UNK     0       6.444  -0.844  -0.709  0.00  0.00    +0.000 OA
ATOM     21  O5  UNK     0       5.218  -2.494  -1.790  0.00  0.00    +0.000 OA
ATOM     22  C25 UNK     0       6.226   0.169   0.267  0.00  0.00    +0.000 C 
ATOM     23  C23 UNK     0       4.716   0.121   0.622  0.00  0.00    +0.000 C 
BRANCH  23  24
ATOM     24  O4  UNK     0       4.082   1.312   0.239  0.00  0.00    +0.000 OA
ATOM     25  H55 UNK     0       4.303   1.983   0.936  0.00  0.00    +0.000 HD
ENDBRANCH  23  24
ENDBRANCH  16  17
ENDBRANCH   4  16
BRANCH   3  26
ATOM     26  C17 UNK     0      -3.735   0.641   1.360  0.00  0.00    +0.000 C 
BRANCH  26  27
ATOM     27  O2  UNK     0      -5.135   0.729   1.424  0.00  0.00    +0.000 OA
ATOM     28  H51 UNK     0      -5.358   0.957   2.364  0.00  0.00    +0.000 HD
ENDBRANCH  26  27
ENDBRANCH   3  26
TORSDOF 6
