REMARK  Name = C:\Users\Maximilian\Desktop\Conformers\converted_pdb\conformers_pdb\Andrographolide_conf_3.pdb
REMARK  8 active torsions:
REMARK  status: ('A' for Active; 'I' for Inactive)
REMARK    1  A    between atoms: C6_1  and  C14_9
REMARK    2  A    between atoms: C8_3  and  C18_12
REMARK    3  A    between atoms: C8_3  and  C17_24
REMARK    4  A    between atoms: C9_4  and  C19_14
REMARK    5  A    between atoms: C11_6  and  O1_27
REMARK    6  A    between atoms: C19_14  and  C21_15
REMARK    7  A    between atoms: C23_21  and  O4_22
REMARK    8  A    between atoms: C17_24  and  O2_25
REMARK                            x       y       z     vdW  Elec       q    Type
REMARK                         _______ _______ _______ _____ _____    ______ ____
ROOT
ATOM      1  C6  UNK     0      -0.657  -0.527   0.375  0.00  0.00    +0.000 C 
ATOM      2  C7  UNK     0      -1.735   0.330  -0.401  0.00  0.00    +0.000 C 
ATOM      3  C8  UNK     0      -3.258  -0.029  -0.142  0.00  0.00    +0.000 C 
ATOM      4  C9  UNK     0       0.833  -0.053  -0.034  0.00  0.00    +0.000 C 
ATOM      5  C10 UNK     0      -0.870  -2.034  -0.029  0.00  0.00    +0.000 C 
ATOM      6  C11 UNK     0      -3.434  -1.587   0.070  0.00  0.00    +0.000 C 
ATOM      7  C12 UNK     0      -1.372   1.834  -0.364  0.00  0.00    +0.000 C 
ATOM      8  C13 UNK     0      -2.280  -2.400  -0.554  0.00  0.00    +0.000 C 
ATOM      9  C14 UNK     0      -0.837  -0.427   1.920  0.00  0.00    +0.000 C 
ATOM     10  C15 UNK     0      -0.115   2.097  -1.213  0.00  0.00    +0.000 C 
ATOM     11  C16 UNK     0       0.820   0.903  -1.227  0.00  0.00    +0.000 C 
ATOM     12  C18 UNK     0      -4.068   0.356  -1.418  0.00  0.00    +0.000 C 
ATOM     13  C20 UNK     0       1.680   0.745  -2.246  0.00  0.00    +0.000 C 
ENDROOT
BRANCH   6  14
ATOM     14  O1  UNK     0      -3.590  -1.930   1.425  0.00  0.00    +0.000 OA
ATOM     15  H47 UNK     0      -3.946  -2.857   1.457  0.00  0.00    +0.000 HD
ENDBRANCH   6  14
BRANCH   4  16
ATOM     16  C19 UNK     0       1.684   0.617   1.092  0.00  0.00    +0.000 C 
BRANCH  16  17
ATOM     17  C21 UNK     0       3.076   0.975   0.634  0.00  0.00    +0.000 C 
ATOM     18  C22 UNK     0       4.078   0.095   0.480  0.00  0.00    +0.000 C 
ATOM     19  C24 UNK     0       4.093  -1.325   0.779  0.00  0.00    +0.000 C 
ATOM     20  O3  UNK     0       5.332  -1.863   0.514  0.00  0.00    +0.000 OA
ATOM     21  O5  UNK     0       3.137  -2.000   1.243  0.00  0.00    +0.000 OA
ATOM     22  C25 UNK     0       6.239  -0.872   0.045  0.00  0.00    +0.000 C 
ATOM     23  C23 UNK     0       5.442   0.455  -0.026  0.00  0.00    +0.000 C 
BRANCH  23  24
ATOM     24  O4  UNK     0       5.367   0.900  -1.356  0.00  0.00    +0.000 OA
ATOM     25  H55 UNK     0       5.114   1.859  -1.322  0.00  0.00    +0.000 HD
ENDBRANCH  23  24
ENDBRANCH  16  17
ENDBRANCH   4  16
BRANCH   3  26
ATOM     26  C17 UNK     0      -3.868   0.794   1.035  0.00  0.00    +0.000 C 
BRANCH  26  27
ATOM     27  O2  UNK     0      -5.188   0.392   1.288  0.00  0.00    +0.000 OA
ATOM     28  H51 UNK     0      -5.514   0.958   2.035  0.00  0.00    +0.000 HD
ENDBRANCH  26  27
ENDBRANCH   3  26
TORSDOF 6
