REMARK  Name = C:\Users\Maximilian\Desktop\Conformers\converted_pdb\conformers_pdb\Andrographolide_conf_35.pdb
REMARK  8 active torsions:
REMARK  status: ('A' for Active; 'I' for Inactive)
REMARK    1  A    between atoms: C6_1  and  C14_9
REMARK    2  A    between atoms: C8_3  and  C18_12
REMARK    3  A    between atoms: C8_3  and  C17_24
REMARK    4  A    between atoms: C9_4  and  C19_14
REMARK    5  A    between atoms: C11_6  and  O1_27
REMARK    6  A    between atoms: C19_14  and  C21_15
REMARK    7  A    between atoms: C23_21  and  O4_22
REMARK    8  A    between atoms: C17_24  and  O2_25
REMARK                            x       y       z     vdW  Elec       q    Type
REMARK                         _______ _______ _______ _____ _____    ______ ____
ROOT
ATOM      1  C6  UNK     0      -0.780  -0.199  -0.585  0.00  0.00    +0.000 C 
ATOM      2  C7  UNK     0      -1.476   0.284   0.759  0.00  0.00    +0.000 C 
ATOM      3  C8  UNK     0      -2.939   0.902   0.612  0.00  0.00    +0.000 C 
ATOM      4  C9  UNK     0       0.721  -0.585  -0.252  0.00  0.00    +0.000 C 
ATOM      5  C10 UNK     0      -0.802   0.969  -1.639  0.00  0.00    +0.000 C 
ATOM      6  C11 UNK     0      -3.122   1.605  -0.787  0.00  0.00    +0.000 C 
ATOM      7  C12 UNK     0      -1.341  -0.752   1.914  0.00  0.00    +0.000 C 
ATOM      8  C13 UNK     0      -1.788   2.111  -1.345  0.00  0.00    +0.000 C 
ATOM      9  C14 UNK     0      -1.492  -1.446  -1.186  0.00  0.00    +0.000 C 
ATOM     10  C15 UNK     0       0.120  -1.125   2.178  0.00  0.00    +0.000 C 
ATOM     11  C16 UNK     0       0.740  -1.597   0.894  0.00  0.00    +0.000 C 
ATOM     12  C18 UNK     0      -3.112   2.007   1.696  0.00  0.00    +0.000 C 
ATOM     13  C20 UNK     0       1.054  -2.900   0.751  0.00  0.00    +0.000 C 
ENDROOT
BRANCH   6  14
ATOM     14  O1  UNK     0      -3.737   0.760  -1.729  0.00  0.00    +0.000 OA
ATOM     15  H47 UNK     0      -4.050   1.331  -2.479  0.00  0.00    +0.000 HD
ENDBRANCH   6  14
BRANCH   4  16
ATOM     16  C19 UNK     0       1.595  -0.985  -1.483  0.00  0.00    +0.000 C 
BRANCH  16  17
ATOM     17  C21 UNK     0       3.041  -1.196  -1.108  0.00  0.00    +0.000 C 
ATOM     18  C22 UNK     0       3.924  -0.216  -0.860  0.00  0.00    +0.000 C 
ATOM     19  C24 UNK     0       3.748   1.221  -0.954  0.00  0.00    +0.000 C 
ATOM     20  O3  UNK     0       4.914   1.879  -0.626  0.00  0.00    +0.000 OA
ATOM     21  O5  UNK     0       2.704   1.820  -1.317  0.00  0.00    +0.000 OA
ATOM     22  C25 UNK     0       5.957   0.964  -0.304  0.00  0.00    +0.000 C 
ATOM     23  C23 UNK     0       5.345  -0.455  -0.443  0.00  0.00    +0.000 C 
BRANCH  23  24
ATOM     24  O4  UNK     0       5.412  -1.168   0.767  0.00  0.00    +0.000 OA
ATOM     25  H55 UNK     0       4.892  -0.663   1.446  0.00  0.00    +0.000 HD
ENDBRANCH  23  24
ENDBRANCH  16  17
ENDBRANCH   4  16
BRANCH   3  26
ATOM     26  C17 UNK     0      -4.085  -0.146   0.821  0.00  0.00    +0.000 C 
BRANCH  26  27
ATOM     27  O2  UNK     0      -4.216  -0.544   2.163  0.00  0.00    +0.000 OA
ATOM     28  H51 UNK     0      -4.905   0.038   2.578  0.00  0.00    +0.000 HD
ENDBRANCH  26  27
ENDBRANCH   3  26
TORSDOF 6
