REMARK  Name = C:\Users\Maximilian\Desktop\Conformers\converted_pdb\conformers_pdb\Andrographolide_conf_24.pdb
REMARK  8 active torsions:
REMARK  status: ('A' for Active; 'I' for Inactive)
REMARK    1  A    between atoms: C6_1  and  C14_9
REMARK    2  A    between atoms: C8_3  and  C18_12
REMARK    3  A    between atoms: C8_3  and  C17_24
REMARK    4  A    between atoms: C9_4  and  C19_14
REMARK    5  A    between atoms: C11_6  and  O1_27
REMARK    6  A    between atoms: C19_14  and  C21_15
REMARK    7  A    between atoms: C23_21  and  O4_22
REMARK    8  A    between atoms: C17_24  and  O2_25
REMARK                            x       y       z     vdW  Elec       q    Type
REMARK                         _______ _______ _______ _____ _____    ______ ____
ROOT
ATOM      1  C6  UNK     0      -0.684  -0.269  -0.522  0.00  0.00    +0.000 C 
ATOM      2  C7  UNK     0      -1.331  -0.091   0.921  0.00  0.00    +0.000 C 
ATOM      3  C8  UNK     0      -2.822   0.479   0.954  0.00  0.00    +0.000 C 
ATOM      4  C9  UNK     0       0.841  -0.641  -0.328  0.00  0.00    +0.000 C 
ATOM      5  C10 UNK     0      -0.771   1.098  -1.302  0.00  0.00    +0.000 C 
ATOM      6  C11 UNK     0      -3.108   1.374  -0.308  0.00  0.00    +0.000 C 
ATOM      7  C12 UNK     0      -1.094  -1.320   1.851  0.00  0.00    +0.000 C 
ATOM      8  C13 UNK     0      -1.836   2.083  -0.791  0.00  0.00    +0.000 C 
ATOM      9  C14 UNK     0      -1.397  -1.405  -1.335  0.00  0.00    +0.000 C 
ATOM     10  C15 UNK     0       0.389  -1.684   1.961  0.00  0.00    +0.000 C 
ATOM     11  C16 UNK     0       0.949  -1.864   0.577  0.00  0.00    +0.000 C 
ATOM     12  C18 UNK     0      -2.968   1.390   2.210  0.00  0.00    +0.000 C 
ATOM     13  C20 UNK     0       1.295  -3.095   0.149  0.00  0.00    +0.000 C 
ENDROOT
BRANCH   6  14
ATOM     14  O1  UNK     0      -3.668   0.628  -1.363  0.00  0.00    +0.000 OA
ATOM     15  H47 UNK     0      -3.983   1.280  -2.046  0.00  0.00    +0.000 HD
ENDBRANCH   6  14
BRANCH   4  16
ATOM     16  C19 UNK     0       1.688  -0.709  -1.641  0.00  0.00    +0.000 C 
BRANCH  16  17
ATOM     17  C21 UNK     0       3.160  -0.906  -1.373  0.00  0.00    +0.000 C 
ATOM     18  C22 UNK     0       3.997   0.064  -0.959  0.00  0.00    +0.000 C 
ATOM     19  C24 UNK     0       5.417  -0.115  -0.754  0.00  0.00    +0.000 C 
ATOM     20  O3  UNK     0       6.013   1.062  -0.360  0.00  0.00    +0.000 OA
ATOM     21  O5  UNK     0       6.048  -1.198  -0.901  0.00  0.00    +0.000 OA
ATOM     22  C25 UNK     0       5.058   2.116  -0.271  0.00  0.00    +0.000 C 
ATOM     23  C23 UNK     0       3.681   1.497  -0.629  0.00  0.00    +0.000 C 
BRANCH  23  24
ATOM     24  O4  UNK     0       3.115   2.148  -1.734  0.00  0.00    +0.000 OA
ATOM     25  H55 UNK     0       2.722   2.996  -1.398  0.00  0.00    +0.000 HD
ENDBRANCH  23  24
ENDBRANCH  16  17
ENDBRANCH   4  16
BRANCH   3  26
ATOM     26  C17 UNK     0      -3.932  -0.621   1.055  0.00  0.00    +0.000 C 
BRANCH  26  27
ATOM     27  O2  UNK     0      -4.001  -1.194   2.338  0.00  0.00    +0.000 OA
ATOM     28  H51 UNK     0      -3.842  -2.171   2.245  0.00  0.00    +0.000 HD
ENDBRANCH  26  27
ENDBRANCH   3  26
TORSDOF 6
