REMARK  Name = C:\Users\Maximilian\Desktop\Conformers\converted_pdb\conformers_pdb\Andrographolide_conf_23.pdb
REMARK  8 active torsions:
REMARK  status: ('A' for Active; 'I' for Inactive)
REMARK    1  A    between atoms: C6_1  and  C14_9
REMARK    2  A    between atoms: C8_3  and  C18_12
REMARK    3  A    between atoms: C8_3  and  C17_24
REMARK    4  A    between atoms: C9_4  and  C19_14
REMARK    5  A    between atoms: C11_6  and  O1_27
REMARK    6  A    between atoms: C19_14  and  C21_15
REMARK    7  A    between atoms: C23_21  and  O4_22
REMARK    8  A    between atoms: C17_24  and  O2_25
REMARK                            x       y       z     vdW  Elec       q    Type
REMARK                         _______ _______ _______ _____ _____    ______ ____
ROOT
ATOM      1  C6  UNK     0      -0.657   0.231   0.331  0.00  0.00    +0.000 C 
ATOM      2  C7  UNK     0      -1.811  -0.691  -0.229  0.00  0.00    +0.000 C 
ATOM      3  C8  UNK     0      -3.261  -0.056  -0.238  0.00  0.00    +0.000 C 
ATOM      4  C9  UNK     0       0.457  -0.741   0.893  0.00  0.00    +0.000 C 
ATOM      5  C10 UNK     0      -1.220   1.148   1.470  0.00  0.00    +0.000 C 
ATOM      6  C11 UNK     0      -3.642   0.352   1.246  0.00  0.00    +0.000 C 
ATOM      7  C12 UNK     0      -1.359  -1.427  -1.514  0.00  0.00    +0.000 C 
ATOM      8  C13 UNK     0      -2.430   0.545   2.187  0.00  0.00    +0.000 C 
ATOM      9  C14 UNK     0      -0.043   1.158  -0.764  0.00  0.00    +0.000 C 
ATOM     10  C15 UNK     0       0.031  -2.096  -1.369  0.00  0.00    +0.000 C 
ATOM     11  C16 UNK     0       0.653  -1.988   0.019  0.00  0.00    +0.000 C 
ATOM     12  C18 UNK     0      -4.284  -1.129  -0.709  0.00  0.00    +0.000 C 
ATOM     13  C20 UNK     0       1.398  -3.010   0.478  0.00  0.00    +0.000 C 
ENDROOT
BRANCH   6  14
ATOM     14  O1  UNK     0      -4.433   1.515   1.283  0.00  0.00    +0.000 OA
ATOM     15  H47 UNK     0      -5.366   1.238   1.080  0.00  0.00    +0.000 HD
ENDBRANCH   6  14
BRANCH   4  16
ATOM     16  C19 UNK     0       1.816  -0.064   1.264  0.00  0.00    +0.000 C 
BRANCH  16  17
ATOM     17  C21 UNK     0       2.796   0.066   0.123  0.00  0.00    +0.000 C 
ATOM     18  C22 UNK     0       4.005   0.628   0.258  0.00  0.00    +0.000 C 
ATOM     19  C24 UNK     0       4.599   1.217   1.442  0.00  0.00    +0.000 C 
ATOM     20  O3  UNK     0       5.848   1.726   1.161  0.00  0.00    +0.000 OA
ATOM     21  O5  UNK     0       4.076   1.270   2.587  0.00  0.00    +0.000 OA
ATOM     22  C25 UNK     0       6.184   1.548  -0.212  0.00  0.00    +0.000 C 
ATOM     23  C23 UNK     0       5.004   0.769  -0.851  0.00  0.00    +0.000 C 
BRANCH  23  24
ATOM     24  O4  UNK     0       5.413  -0.489  -1.331  0.00  0.00    +0.000 OA
ATOM     25  H55 UNK     0       5.780  -1.002  -0.563  0.00  0.00    +0.000 HD
ENDBRANCH  23  24
ENDBRANCH  16  17
ENDBRANCH   4  16
BRANCH   3  26
ATOM     26  C17 UNK     0      -3.363   1.163  -1.210  0.00  0.00    +0.000 C 
BRANCH  26  27
ATOM     27  O2  UNK     0      -4.701   1.489  -1.486  0.00  0.00    +0.000 OA
ATOM     28  H51 UNK     0      -4.677   2.274  -2.093  0.00  0.00    +0.000 HD
ENDBRANCH  26  27
ENDBRANCH   3  26
TORSDOF 6
