REMARK  Name = C:\Users\Maximilian\Desktop\Conformers\converted_pdb\conformers_pdb\Andrographolide_conf_10.pdb
REMARK  8 active torsions:
REMARK  status: ('A' for Active; 'I' for Inactive)
REMARK    1  A    between atoms: C6_1  and  C14_9
REMARK    2  A    between atoms: C8_3  and  C18_12
REMARK    3  A    between atoms: C8_3  and  C17_24
REMARK    4  A    between atoms: C9_4  and  C19_14
REMARK    5  A    between atoms: C11_6  and  O1_27
REMARK    6  A    between atoms: C19_14  and  C21_15
REMARK    7  A    between atoms: C23_21  and  O4_22
REMARK    8  A    between atoms: C17_24  and  O2_25
REMARK                            x       y       z     vdW  Elec       q    Type
REMARK                         _______ _______ _______ _____ _____    ______ ____
ROOT
ATOM      1  C6  UNK     0      -0.536  -0.489  -0.006  0.00  0.00    +0.000 C 
ATOM      2  C7  UNK     0      -1.697   0.580   0.082  0.00  0.00    +0.000 C 
ATOM      3  C8  UNK     0      -3.181   0.024   0.147  0.00  0.00    +0.000 C 
ATOM      4  C9  UNK     0       0.899   0.250  -0.101  0.00  0.00    +0.000 C 
ATOM      5  C10 UNK     0      -0.783  -1.349  -1.302  0.00  0.00    +0.000 C 
ATOM      6  C11 UNK     0      -3.323  -1.282  -0.734  0.00  0.00    +0.000 C 
ATOM      7  C12 UNK     0      -1.340   1.697   1.092  0.00  0.00    +0.000 C 
ATOM      8  C13 UNK     0      -2.239  -1.376  -1.828  0.00  0.00    +0.000 C 
ATOM      9  C14 UNK     0      -0.548  -1.464   1.211  0.00  0.00    +0.000 C 
ATOM     10  C15 UNK     0      -0.183   2.555   0.548  0.00  0.00    +0.000 C 
ATOM     11  C16 UNK     0       0.750   1.752  -0.338  0.00  0.00    +0.000 C 
ATOM     12  C18 UNK     0      -4.124   1.102  -0.470  0.00  0.00    +0.000 C 
ATOM     13  C20 UNK     0       1.491   2.380  -1.265  0.00  0.00    +0.000 C 
ENDROOT
BRANCH   6  14
ATOM     14  O1  UNK     0      -3.330  -2.455   0.042  0.00  0.00    +0.000 OA
ATOM     15  H47 UNK     0      -3.675  -3.189  -0.532  0.00  0.00    +0.000 HD
ENDBRANCH   6  14
BRANCH   4  16
ATOM     16  C19 UNK     0       1.862   0.059   1.114  0.00  0.00    +0.000 C 
BRANCH  16  17
ATOM     17  C21 UNK     0       3.186   0.757   0.927  0.00  0.00    +0.000 C 
ATOM     18  C22 UNK     0       4.212   0.240   0.233  0.00  0.00    +0.000 C 
ATOM     19  C24 UNK     0       5.467   0.911  -0.009  0.00  0.00    +0.000 C 
ATOM     20  O3  UNK     0       6.298   0.134  -0.783  0.00  0.00    +0.000 OA
ATOM     21  O5  UNK     0       5.780   2.054   0.416  0.00  0.00    +0.000 OA
ATOM     22  C25 UNK     0       5.672  -1.094  -1.137  0.00  0.00    +0.000 C 
ATOM     23  C23 UNK     0       4.291  -1.104  -0.428  0.00  0.00    +0.000 C 
BRANCH  23  24
ATOM     24  O4  UNK     0       4.246  -2.116   0.543  0.00  0.00    +0.000 OA
ATOM     25  H55 UNK     0       4.094  -2.966   0.054  0.00  0.00    +0.000 HD
ENDBRANCH  23  24
ENDBRANCH  16  17
ENDBRANCH   4  16
BRANCH   3  26
ATOM     26  C17 UNK     0      -3.661  -0.203   1.616  0.00  0.00    +0.000 C 
BRANCH  26  27
ATOM     27  O2  UNK     0      -4.931  -0.805   1.650  0.00  0.00    +0.000 OA
ATOM     28  H51 UNK     0      -5.599  -0.079   1.752  0.00  0.00    +0.000 HD
ENDBRANCH  26  27
ENDBRANCH   3  26
TORSDOF 6
