REMARK  Name = C:\Users\Maximilian\Desktop\Conformers\converted_pdb\conformers_pdb\Andrographolide_conf_5.pdb
REMARK  8 active torsions:
REMARK  status: ('A' for Active; 'I' for Inactive)
REMARK    1  A    between atoms: C6_1  and  C14_9
REMARK    2  A    between atoms: C8_3  and  C18_12
REMARK    3  A    between atoms: C8_3  and  C17_24
REMARK    4  A    between atoms: C9_4  and  C19_14
REMARK    5  A    between atoms: C11_6  and  O1_27
REMARK    6  A    between atoms: C19_14  and  C21_15
REMARK    7  A    between atoms: C23_21  and  O4_22
REMARK    8  A    between atoms: C17_24  and  O2_25
REMARK                            x       y       z     vdW  Elec       q    Type
REMARK                         _______ _______ _______ _____ _____    ______ ____
ROOT
ATOM      1  C6  UNK     0      -0.746   0.086  -0.787  0.00  0.00    +0.000 C 
ATOM      2  C7  UNK     0      -1.604  -0.439   0.444  0.00  0.00    +0.000 C 
ATOM      3  C8  UNK     0      -2.973   0.312   0.709  0.00  0.00    +0.000 C 
ATOM      4  C9  UNK     0       0.750  -0.368  -0.512  0.00  0.00    +0.000 C 
ATOM      5  C10 UNK     0      -0.927   1.644  -0.898  0.00  0.00    +0.000 C 
ATOM      6  C11 UNK     0      -2.656   1.846   0.971  0.00  0.00    +0.000 C 
ATOM      7  C12 UNK     0      -1.585  -1.987   0.545  0.00  0.00    +0.000 C 
ATOM      8  C13 UNK     0      -1.285   2.316   0.428  0.00  0.00    +0.000 C 
ATOM      9  C14 UNK     0      -1.183  -0.529  -2.153  0.00  0.00    +0.000 C 
ATOM     10  C15 UNK     0      -0.141  -2.475   0.746  0.00  0.00    +0.000 C 
ATOM     11  C16 UNK     0       0.766  -1.903  -0.322  0.00  0.00    +0.000 C 
ATOM     12  C18 UNK     0      -3.646  -0.241   1.996  0.00  0.00    +0.000 C 
ATOM     13  C20 UNK     0       1.409  -2.762  -1.140  0.00  0.00    +0.000 C 
ENDROOT
BRANCH   6  14
ATOM     14  O1  UNK     0      -3.661   2.685   0.454  0.00  0.00    +0.000 OA
ATOM     15  H47 UNK     0      -4.424   2.646   1.088  0.00  0.00    +0.000 HD
ENDBRANCH   6  14
BRANCH   4  16
ATOM     16  C19 UNK     0       1.818   0.151  -1.530  0.00  0.00    +0.000 C 
BRANCH  16  17
ATOM     17  C21 UNK     0       3.224  -0.138  -1.067  0.00  0.00    +0.000 C 
ATOM     18  C22 UNK     0       3.863   0.543  -0.101  0.00  0.00    +0.000 C 
ATOM     19  C24 UNK     0       3.412   1.706   0.640  0.00  0.00    +0.000 C 
ATOM     20  O3  UNK     0       4.387   2.132   1.514  0.00  0.00    +0.000 OA
ATOM     21  O5  UNK     0       2.307   2.293   0.507  0.00  0.00    +0.000 OA
ATOM     22  C25 UNK     0       5.555   1.323   1.424  0.00  0.00    +0.000 C 
ATOM     23  C23 UNK     0       5.251   0.230   0.369  0.00  0.00    +0.000 C 
BRANCH  23  24
ATOM     24  O4  UNK     0       5.291  -1.040   0.967  0.00  0.00    +0.000 OA
ATOM     25  H55 UNK     0       5.386  -1.699   0.232  0.00  0.00    +0.000 HD
ENDBRANCH  23  24
ENDBRANCH  16  17
ENDBRANCH   4  16
BRANCH   3  26
ATOM     26  C17 UNK     0      -4.007   0.147  -0.445  0.00  0.00    +0.000 C 
BRANCH  26  27
ATOM     27  O2  UNK     0      -4.150  -1.196  -0.816  0.00  0.00    +0.000 OA
ATOM     28  H51 UNK     0      -4.795  -1.209  -1.570  0.00  0.00    +0.000 HD
ENDBRANCH  26  27
ENDBRANCH   3  26
TORSDOF 6
