REMARK  Name = C:\Users\Maximilian\Desktop\Conformers\converted_pdb\conformers_pdb\Andrographolide_conf_26.pdb
REMARK  8 active torsions:
REMARK  status: ('A' for Active; 'I' for Inactive)
REMARK    1  A    between atoms: C6_1  and  C14_9
REMARK    2  A    between atoms: C8_3  and  C18_12
REMARK    3  A    between atoms: C8_3  and  C17_24
REMARK    4  A    between atoms: C9_4  and  C19_14
REMARK    5  A    between atoms: C11_6  and  O1_27
REMARK    6  A    between atoms: C19_14  and  C21_15
REMARK    7  A    between atoms: C23_21  and  O4_22
REMARK    8  A    between atoms: C17_24  and  O2_25
REMARK                            x       y       z     vdW  Elec       q    Type
REMARK                         _______ _______ _______ _____ _____    ______ ____
ROOT
ATOM      1  C6  UNK     0      -0.695  -0.052  -0.183  0.00  0.00    +0.000 C 
ATOM      2  C7  UNK     0      -1.860   0.346   0.820  0.00  0.00    +0.000 C 
ATOM      3  C8  UNK     0      -3.348   0.331   0.248  0.00  0.00    +0.000 C 
ATOM      4  C9  UNK     0       0.687   0.273   0.520  0.00  0.00    +0.000 C 
ATOM      5  C10 UNK     0      -0.826   0.795  -1.502  0.00  0.00    +0.000 C 
ATOM      6  C11 UNK     0      -3.376   0.571  -1.307  0.00  0.00    +0.000 C 
ATOM      7  C12 UNK     0      -1.719  -0.336   2.211  0.00  0.00    +0.000 C 
ATOM      8  C13 UNK     0      -2.200   1.442  -1.758  0.00  0.00    +0.000 C 
ATOM      9  C14 UNK     0      -0.713  -1.566  -0.543  0.00  0.00    +0.000 C 
ATOM     10  C15 UNK     0      -0.365  -0.030   2.852  0.00  0.00    +0.000 C 
ATOM     11  C16 UNK     0       0.739  -0.398   1.898  0.00  0.00    +0.000 C 
ATOM     12  C18 UNK     0      -4.118   1.518   0.903  0.00  0.00    +0.000 C 
ATOM     13  C20 UNK     0       1.635  -1.341   2.254  0.00  0.00    +0.000 C 
ENDROOT
BRANCH   6  14
ATOM     14  O1  UNK     0      -3.368  -0.625  -2.045  0.00  0.00    +0.000 OA
ATOM     15  H47 UNK     0      -4.312  -0.898  -2.184  0.00  0.00    +0.000 HD
ENDBRANCH   6  14
BRANCH   4  16
ATOM     16  C19 UNK     0       1.945   0.018  -0.368  0.00  0.00    +0.000 C 
BRANCH  16  17
ATOM     17  C21 UNK     0       3.186   0.642   0.220  0.00  0.00    +0.000 C 
ATOM     18  C22 UNK     0       4.381   0.559  -0.380  0.00  0.00    +0.000 C 
ATOM     19  C24 UNK     0       5.600   1.156   0.105  0.00  0.00    +0.000 C 
ATOM     20  O3  UNK     0       6.636   0.939  -0.775  0.00  0.00    +0.000 OA
ATOM     21  O5  UNK     0       5.726   1.797   1.182  0.00  0.00    +0.000 OA
ATOM     22  C25 UNK     0       6.197   0.204  -1.914  0.00  0.00    +0.000 C 
ATOM     23  C23 UNK     0       4.697  -0.121  -1.677  0.00  0.00    +0.000 C 
BRANCH  23  24
ATOM     24  O4  UNK     0       4.507  -1.505  -1.549  0.00  0.00    +0.000 OA
ATOM     25  H55 UNK     0       4.537  -1.877  -2.468  0.00  0.00    +0.000 HD
ENDBRANCH  23  24
ENDBRANCH  16  17
ENDBRANCH   4  16
BRANCH   3  26
ATOM     26  C17 UNK     0      -4.167  -0.945   0.632  0.00  0.00    +0.000 C 
BRANCH  26  27
ATOM     27  O2  UNK     0      -3.523  -2.127   0.254  0.00  0.00    +0.000 OA
ATOM     28  H51 UNK     0      -4.120  -2.870   0.529  0.00  0.00    +0.000 HD
ENDBRANCH  26  27
ENDBRANCH   3  26
TORSDOF 6
