REMARK  4 active torsions:
REMARK  status: ('A' for Active; 'I' for Inactive)
REMARK    1  A    between atoms: O2_2  and  C12_12 
REMARK    2  A    between atoms: O4_4  and  C14_14 
REMARK    3  A    between atoms: O5_5  and  C20_20 
REMARK    4  A    between atoms: C8_8  and  C9_9 
ROOT
HETATM    1  O1          0       5.800  -1.052  -0.000  1.00  0.00    -0.309 OA
HETATM    2  O3          0       5.894   2.987   0.000  1.00  0.00    -0.287 OA
HETATM    3  C6          0       4.575   1.059   0.000  1.00  0.00     0.081 A 
HETATM    4  C7          0       4.597  -0.392  -0.000  1.00  0.00     0.095 A 
HETATM    5  C8          0       7.008  -0.370   0.000  1.00  0.00     0.090 A 
HETATM    6  C10         0       5.840   1.752   0.000  1.00  0.00     0.190 A 
HETATM    7  C11         0       7.059   0.965   0.000  1.00  0.00     0.094 A 
HETATM    8  C12         0       3.416   1.720  -0.000  1.00  0.00     0.085 A 
HETATM    9  C13         0       3.453  -1.075  -0.000  1.00  0.00     0.075 A 
HETATM   10  C14         0       2.173  -0.355  -0.000  1.00  0.00     0.071 A 
HETATM   11  C15         0       2.158   0.976  -0.000  1.00  0.00     0.074 A 
ENDROOT
BRANCH   5  12
HETATM   12  C9          0       8.263  -1.120   0.000  1.00  0.00    -0.002 A 
HETATM   13  C16         0       8.253  -2.452   0.000  1.00  0.00     0.017 A 
HETATM   14  C18         0       9.520  -3.193   0.000  1.00  0.00     0.037 A 
HETATM   15  C20         0      10.679  -2.533   0.000  1.00  0.00     0.065 A 
HETATM   16  C19         0      10.688  -1.070   0.000  1.00  0.00     0.037 A 
HETATM   17  C17         0       9.539  -0.398   0.000  1.00  0.00     0.017 A 
BRANCH  15  18
HETATM   18  O5          0      11.880  -3.233   0.000  1.00  0.00    -0.361 OA
HETATM   19  H30         0      12.635  -2.591   0.000  1.00  0.00     0.217 HD
ENDBRANCH  15  18
ENDBRANCH   5  12
BRANCH  10  20
HETATM   20  O4          0       0.975  -1.060  -0.000  1.00  0.00    -0.361 OA
HETATM   21  H29         0       0.218  -0.421  -0.000  1.00  0.00     0.217 HD
ENDBRANCH  10  20
BRANCH   8  22
HETATM   22  O2          0       3.394   3.109   0.000  1.00  0.00    -0.360 OA
HETATM   23  H28         0       2.457   3.423  -0.000  1.00  0.00     0.217 HD
ENDBRANCH   8  22
TORSDOF 4
