REMARK  Name = C:\Users\Maximilian\Desktop\Conformers\converted_pdb\conformers_pdb\Apigenin_conf_1.pdb
REMARK  4 active torsions:
REMARK  status: ('A' for Active; 'I' for Inactive)
REMARK    1  A    between atoms: C8_5  and  C9_12
REMARK    2  A    between atoms: C12_8  and  O2_22
REMARK    3  A    between atoms: C14_10  and  O4_20
REMARK    4  A    between atoms: C20_15  and  O5_18
REMARK                            x       y       z     vdW  Elec       q    Type
REMARK                         _______ _______ _______ _____ _____    ______ ____
ROOT
ATOM      1  O1  UNK     0      -0.337  -0.437  -0.346  0.00  0.00    +0.000 OA
ATOM      2  O3  UNK     0      -1.651   2.125   2.431  0.00  0.00    +0.000 OA
ATOM      3  C6  UNK     0      -2.198   0.614   0.729  0.00  0.00    +0.000 A 
ATOM      4  C7  UNK     0      -1.651  -0.310  -0.202  0.00  0.00    +0.000 A 
ATOM      5  C8  UNK     0       0.549   0.254   0.365  0.00  0.00    +0.000 A 
ATOM      6  C10 UNK     0      -1.276   1.338   1.524  0.00  0.00    +0.000 A 
ATOM      7  C11 UNK     0       0.095   1.168   1.326  0.00  0.00    +0.000 A 
ATOM      8  C12 UNK     0      -3.618   0.730   0.818  0.00  0.00    +0.000 A 
ATOM      9  C13 UNK     0      -2.488  -1.111  -0.982  0.00  0.00    +0.000 A 
ATOM     10  C14 UNK     0      -3.872  -1.025  -0.851  0.00  0.00    +0.000 A 
ATOM     11  C15 UNK     0      -4.429  -0.112   0.048  0.00  0.00    +0.000 A 
ENDROOT
BRANCH   5  12
ATOM     12  C9  UNK     0       1.995   0.035   0.111  0.00  0.00    +0.000 A 
ATOM     13  C16 UNK     0       2.414  -0.414  -1.155  0.00  0.00    +0.000 A 
ATOM     14  C18 UNK     0       3.769  -0.636  -1.418  0.00  0.00    +0.000 A 
ATOM     15  C20 UNK     0       4.725  -0.421  -0.418  0.00  0.00    +0.000 A 
ATOM     16  C19 UNK     0       4.318   0.012   0.847  0.00  0.00    +0.000 A 
ATOM     17  C17 UNK     0       2.964   0.236   1.114  0.00  0.00    +0.000 A 
BRANCH  15  18
ATOM     18  O5  UNK     0       6.078  -0.639  -0.669  0.00  0.00    +0.000 OA
ATOM     19  H30 UNK     0       6.404  -0.954  -1.575  0.00  0.00    +0.000 HD
ENDBRANCH  15  18
ENDBRANCH   5  12
BRANCH  10  20
ATOM     20  O4  UNK     0      -4.688  -1.848  -1.625  0.00  0.00    +0.000 OA
ATOM     21  H29 UNK     0      -5.698  -1.809  -1.556  0.00  0.00    +0.000 HD
ENDBRANCH  10  20
BRANCH   8  22
ATOM     22  O2  UNK     0      -4.278   1.663   1.623  0.00  0.00    +0.000 OA
ATOM     23  H28 UNK     0      -3.853   2.482   2.030  0.00  0.00    +0.000 HD
ENDBRANCH   8  22
TORSDOF 4
