REMARK  Name = C:\Users\Maximilian\Desktop\Conformers\converted_pdb\conformers_pdb\Artemisinin_conf_2.pdb
REMARK  3 active torsions:
REMARK  status: ('A' for Active; 'I' for Inactive)
REMARK    1  A    between atoms: C9_9  and  C17_17
REMARK    2  A    between atoms: C14_14  and  C19_19
REMARK    3  A    between atoms: C15_15  and  C20_20
REMARK                            x       y       z     vdW  Elec       q    Type
REMARK                         _______ _______ _______ _____ _____    ______ ____
ROOT
ATOM      1  O1  UNK     0      -0.394  -0.804  -1.733  0.00  0.00    +0.000 OA
ATOM      2  O2  UNK     0      -1.802  -1.391   0.686  0.00  0.00    +0.000 OA
ATOM      3  O3  UNK     0       0.314  -2.312   0.842  0.00  0.00    +0.000 OA
ATOM      4  O4  UNK     0      -1.225  -1.828  -1.521  0.00  0.00    +0.000 OA
ATOM      5  O5  UNK     0       2.279  -3.480   0.819  0.00  0.00    +0.000 OA
ATOM      6  C6  UNK     0       0.049  -0.228  -0.504  0.00  0.00    +0.000 C 
ATOM      7  C7  UNK     0      -0.594   1.201  -0.456  0.00  0.00    +0.000 C 
ATOM      8  C8  UNK     0       1.600  -0.139  -0.560  0.00  0.00    +0.000 C 
ATOM      9  C9  UNK     0       0.034   2.111   0.647  0.00  0.00    +0.000 C 
ATOM     10  C10 UNK     0      -0.414  -1.088   0.733  0.00  0.00    +0.000 C 
ATOM     11  C11 UNK     0       2.160   0.724   0.593  0.00  0.00    +0.000 C 
ATOM     12  C12 UNK     0      -2.147   1.146  -0.312  0.00  0.00    +0.000 C 
ATOM     13  C13 UNK     0       1.568   2.132   0.545  0.00  0.00    +0.000 C 
ATOM     14  C14 UNK     0       2.222  -1.561  -0.627  0.00  0.00    +0.000 C 
ATOM     15  C15 UNK     0      -2.276  -1.422  -0.652  0.00  0.00    +0.000 C 
ATOM     16  C16 UNK     0      -2.845  -0.021  -1.046  0.00  0.00    +0.000 C 
ATOM     17  C17 UNK     0      -0.492   3.555   0.565  0.00  0.00    +0.000 C 
ATOM     18  C18 UNK     0       1.634  -2.474   0.420  0.00  0.00    +0.000 C 
ATOM     19  C19 UNK     0       3.760  -1.553  -0.592  0.00  0.00    +0.000 C 
ATOM     20  C20 UNK     0      -3.381  -2.476  -0.742  0.00  0.00    +0.000 C 
ENDROOT
TORSDOF 0
