REMARK  Name = C:\Users\Maximilian\Desktop\Conformers\converted_pdb\conformers_pdb\Artemisinin_conf_3.pdb
REMARK  3 active torsions:
REMARK  status: ('A' for Active; 'I' for Inactive)
REMARK    1  A    between atoms: C9_9  and  C17_17
REMARK    2  A    between atoms: C14_14  and  C19_19
REMARK    3  A    between atoms: C15_15  and  C20_20
REMARK                            x       y       z     vdW  Elec       q    Type
REMARK                         _______ _______ _______ _____ _____    ______ ____
ROOT
ATOM      1  O1  UNK     0      -0.916  -1.013  -1.544  0.00  0.00    +0.000 OA
ATOM      2  O2  UNK     0      -1.648  -1.406   1.194  0.00  0.00    +0.000 OA
ATOM      3  O3  UNK     0       0.333  -2.520   0.791  0.00  0.00    +0.000 OA
ATOM      4  O4  UNK     0      -1.769  -1.918  -1.060  0.00  0.00    +0.000 OA
ATOM      5  O5  UNK     0       2.203  -3.792   0.413  0.00  0.00    +0.000 OA
ATOM      6  C6  UNK     0      -0.074  -0.470  -0.523  0.00  0.00    +0.000 C 
ATOM      7  C7  UNK     0      -0.536   1.023  -0.397  0.00  0.00    +0.000 C 
ATOM      8  C8  UNK     0       1.421  -0.591  -1.033  0.00  0.00    +0.000 C 
ATOM      9  C9  UNK     0       0.538   1.899   0.308  0.00  0.00    +0.000 C 
ATOM     10  C10 UNK     0      -0.282  -1.238   0.844  0.00  0.00    +0.000 C 
ATOM     11  C11 UNK     0       2.041   0.753  -1.482  0.00  0.00    +0.000 C 
ATOM     12  C12 UNK     0      -1.944   1.154   0.254  0.00  0.00    +0.000 C 
ATOM     13  C13 UNK     0       1.872   1.910  -0.481  0.00  0.00    +0.000 C 
ATOM     14  C14 UNK     0       2.388  -1.474  -0.176  0.00  0.00    +0.000 C 
ATOM     15  C15 UNK     0      -2.477  -1.374   0.047  0.00  0.00    +0.000 C 
ATOM     16  C16 UNK     0      -2.961   0.089  -0.213  0.00  0.00    +0.000 C 
ATOM     17  C17 UNK     0       0.067   3.348   0.537  0.00  0.00    +0.000 C 
ATOM     18  C18 UNK     0       1.644  -2.665   0.352  0.00  0.00    +0.000 C 
ATOM     19  C19 UNK     0       3.101  -0.752   0.976  0.00  0.00    +0.000 C 
ATOM     20  C20 UNK     0      -3.683  -2.279   0.308  0.00  0.00    +0.000 C 
ENDROOT
TORSDOF 0
