REMARK  Name = C:\Users\Maximilian\Desktop\Conformers\converted_pdb\conformers_pdb\Artemisinin_conf_5.pdb
REMARK  3 active torsions:
REMARK  status: ('A' for Active; 'I' for Inactive)
REMARK    1  A    between atoms: C9_9  and  C17_17
REMARK    2  A    between atoms: C14_14  and  C19_19
REMARK    3  A    between atoms: C15_15  and  C20_20
REMARK                            x       y       z     vdW  Elec       q    Type
REMARK                         _______ _______ _______ _____ _____    ______ ____
ROOT
ATOM      1  O1  UNK     0       1.200  -0.996   1.132  0.00  0.00    +0.000 OA
ATOM      2  O2  UNK     0       1.892  -1.096  -1.274  0.00  0.00    +0.000 OA
ATOM      3  O3  UNK     0      -0.265  -1.829  -1.647  0.00  0.00    +0.000 OA
ATOM      4  O4  UNK     0       2.427  -0.497   0.943  0.00  0.00    +0.000 OA
ATOM      5  O5  UNK     0      -1.644  -3.645  -1.432  0.00  0.00    +0.000 OA
ATOM      6  C6  UNK     0       0.215  -0.339   0.337  0.00  0.00    +0.000 C 
ATOM      7  C7  UNK     0       0.245   1.228   0.521  0.00  0.00    +0.000 C 
ATOM      8  C8  UNK     0      -1.166  -0.865   0.837  0.00  0.00    +0.000 C 
ATOM      9  C9  UNK     0      -0.887   1.956  -0.283  0.00  0.00    +0.000 C 
ATOM     10  C10 UNK     0       0.528  -0.746  -1.142  0.00  0.00    +0.000 C 
ATOM     11  C11 UNK     0      -2.391  -0.034   0.342  0.00  0.00    +0.000 C 
ATOM     12  C12 UNK     0       1.628   1.919   0.270  0.00  0.00    +0.000 C 
ATOM     13  C13 UNK     0      -2.058   1.034  -0.699  0.00  0.00    +0.000 C 
ATOM     14  C14 UNK     0      -1.279  -2.387   0.577  0.00  0.00    +0.000 C 
ATOM     15  C15 UNK     0       2.721  -0.296  -0.436  0.00  0.00    +0.000 C 
ATOM     16  C16 UNK     0       2.561   1.222  -0.744  0.00  0.00    +0.000 C 
ATOM     17  C17 UNK     0      -1.416   3.172   0.497  0.00  0.00    +0.000 C 
ATOM     18  C18 UNK     0      -1.095  -2.652  -0.884  0.00  0.00    +0.000 C 
ATOM     19  C19 UNK     0      -2.564  -3.015   1.149  0.00  0.00    +0.000 C 
ATOM     20  C20 UNK     0       4.168  -0.731  -0.679  0.00  0.00    +0.000 C 
ENDROOT
TORSDOF 0
