REMARK  Name = C:\Users\Maximilian\Desktop\Conformers\converted_pdb\conformers_pdb\Artemisinin_conf_6.pdb
REMARK  3 active torsions:
REMARK  status: ('A' for Active; 'I' for Inactive)
REMARK    1  A    between atoms: C9_9  and  C17_17
REMARK    2  A    between atoms: C14_14  and  C19_19
REMARK    3  A    between atoms: C15_15  and  C20_20
REMARK                            x       y       z     vdW  Elec       q    Type
REMARK                         _______ _______ _______ _____ _____    ______ ____
ROOT
ATOM      1  O1  UNK     0       0.921  -1.112   1.212  0.00  0.00    +0.000 OA
ATOM      2  O2  UNK     0       1.557  -1.642  -1.144  0.00  0.00    +0.000 OA
ATOM      3  O3  UNK     0      -0.692  -1.961  -1.441  0.00  0.00    +0.000 OA
ATOM      4  O4  UNK     0       2.219  -0.886   0.995  0.00  0.00    +0.000 OA
ATOM      5  O5  UNK     0      -2.154  -3.643  -0.908  0.00  0.00    +0.000 OA
ATOM      6  C6  UNK     0       0.098  -0.353   0.331  0.00  0.00    +0.000 C 
ATOM      7  C7  UNK     0       0.490   1.188   0.360  0.00  0.00    +0.000 C 
ATOM      8  C8  UNK     0      -1.368  -0.536   0.827  0.00  0.00    +0.000 C 
ATOM      9  C9  UNK     0      -0.563   2.101  -0.360  0.00  0.00    +0.000 C 
ATOM     10  C10 UNK     0       0.303  -0.993  -1.081  0.00  0.00    +0.000 C 
ATOM     11  C11 UNK     0      -2.346   0.327   0.004  0.00  0.00    +0.000 C 
ATOM     12  C12 UNK     0       1.963   1.525  -0.082  0.00  0.00    +0.000 C 
ATOM     13  C13 UNK     0      -1.990   1.799   0.134  0.00  0.00    +0.000 C 
ATOM     14  C14 UNK     0      -1.749  -2.038   0.831  0.00  0.00    +0.000 C 
ATOM     15  C15 UNK     0       2.548  -0.958  -0.389  0.00  0.00    +0.000 C 
ATOM     16  C16 UNK     0       2.738   0.486  -0.915  0.00  0.00    +0.000 C 
ATOM     17  C17 UNK     0      -0.304   3.606  -0.127  0.00  0.00    +0.000 C 
ATOM     18  C18 UNK     0      -1.544  -2.603  -0.543  0.00  0.00    +0.000 C 
ATOM     19  C19 UNK     0      -3.173  -2.290   1.356  0.00  0.00    +0.000 C 
ATOM     20  C20 UNK     0       3.853  -1.744  -0.527  0.00  0.00    +0.000 C 
ENDROOT
TORSDOF 0
