REMARK  Name = C:\Users\Maximilian\Desktop\Conformers\converted_pdb\conformers_pdb\Artemisinin_conf_8.pdb
REMARK  3 active torsions:
REMARK  status: ('A' for Active; 'I' for Inactive)
REMARK    1  A    between atoms: C9_9  and  C17_17
REMARK    2  A    between atoms: C14_14  and  C19_19
REMARK    3  A    between atoms: C15_15  and  C20_20
REMARK                            x       y       z     vdW  Elec       q    Type
REMARK                         _______ _______ _______ _____ _____    ______ ____
ROOT
ATOM      1  O1  UNK     0      -0.567  -1.142  -1.368  0.00  0.00    +0.000 OA
ATOM      2  O2  UNK     0      -1.618  -1.067   1.314  0.00  0.00    +0.000 OA
ATOM      3  O3  UNK     0       0.389  -2.188   1.231  0.00  0.00    +0.000 OA
ATOM      4  O4  UNK     0      -1.553  -1.913  -0.879  0.00  0.00    +0.000 OA
ATOM      5  O5  UNK     0       2.256  -3.506   1.131  0.00  0.00    +0.000 OA
ATOM      6  C6  UNK     0       0.044  -0.336  -0.369  0.00  0.00    +0.000 C 
ATOM      7  C7  UNK     0      -0.508   1.098  -0.603  0.00  0.00    +0.000 C 
ATOM      8  C8  UNK     0       1.585  -0.290  -0.568  0.00  0.00    +0.000 C 
ATOM      9  C9  UNK     0       0.013   2.100   0.463  0.00  0.00    +0.000 C 
ATOM     10  C10 UNK     0      -0.246  -0.922   1.057  0.00  0.00    +0.000 C 
ATOM     11  C11 UNK     0       2.234   0.724   0.423  0.00  0.00    +0.000 C 
ATOM     12  C12 UNK     0      -2.021   1.116  -0.981  0.00  0.00    +0.000 C 
ATOM     13  C13 UNK     0       1.566   2.118   0.402  0.00  0.00    +0.000 C 
ATOM     14  C14 UNK     0       2.191  -1.720  -0.477  0.00  0.00    +0.000 C 
ATOM     15  C15 UNK     0      -2.350  -1.263   0.123  0.00  0.00    +0.000 C 
ATOM     16  C16 UNK     0      -2.958   0.102  -0.300  0.00  0.00    +0.000 C 
ATOM     17  C17 UNK     0      -0.509   3.530   0.244  0.00  0.00    +0.000 C 
ATOM     18  C18 UNK     0       1.646  -2.490   0.702  0.00  0.00    +0.000 C 
ATOM     19  C19 UNK     0       3.728  -1.723  -0.504  0.00  0.00    +0.000 C 
ATOM     20  C20 UNK     0      -3.497  -2.219   0.464  0.00  0.00    +0.000 C 
ENDROOT
TORSDOF 0
