REMARK  Name = C:\Users\Maximilian\Desktop\Conformers\converted_pdb\conformers_pdb\Artemisinin_conf_4.pdb
REMARK  3 active torsions:
REMARK  status: ('A' for Active; 'I' for Inactive)
REMARK    1  A    between atoms: C9_9  and  C17_17
REMARK    2  A    between atoms: C14_14  and  C19_19
REMARK    3  A    between atoms: C15_15  and  C20_20
REMARK                            x       y       z     vdW  Elec       q    Type
REMARK                         _______ _______ _______ _____ _____    ______ ____
ROOT
ATOM      1  O1  UNK     0      -0.357   0.792   1.661  0.00  0.00    +0.000 OA
ATOM      2  O2  UNK     0      -0.753   2.418  -0.178  0.00  0.00    +0.000 OA
ATOM      3  O3  UNK     0       1.406   1.940  -0.795  0.00  0.00    +0.000 OA
ATOM      4  O4  UNK     0      -1.642   1.151   1.615  0.00  0.00    +0.000 OA
ATOM      5  O5  UNK     0       3.449   2.606   0.005  0.00  0.00    +0.000 OA
ATOM      6  C6  UNK     0       0.060   0.200   0.435  0.00  0.00    +0.000 C 
ATOM      7  C7  UNK     0      -0.941  -0.953  -0.014  0.00  0.00    +0.000 C 
ATOM      8  C8  UNK     0       1.480  -0.384   0.697  0.00  0.00    +0.000 C 
ATOM      9  C9  UNK     0      -0.365  -1.864  -1.154  0.00  0.00    +0.000 C 
ATOM     10  C10 UNK     0       0.105   1.372  -0.597  0.00  0.00    +0.000 C 
ATOM     11  C11 UNK     0       1.998  -1.161  -0.531  0.00  0.00    +0.000 C 
ATOM     12  C12 UNK     0      -2.419  -0.491  -0.338  0.00  0.00    +0.000 C 
ATOM     13  C13 UNK     0       1.074  -2.323  -0.850  0.00  0.00    +0.000 C 
ATOM     14  C14 UNK     0       2.448   0.744   1.144  0.00  0.00    +0.000 C 
ATOM     15  C15 UNK     0      -1.928   1.916   0.448  0.00  0.00    +0.000 C 
ATOM     16  C16 UNK     0      -2.718   1.015  -0.527  0.00  0.00    +0.000 C 
ATOM     17  C17 UNK     0      -1.204  -3.145  -1.376  0.00  0.00    +0.000 C 
ATOM     18  C18 UNK     0       2.475   1.812   0.093  0.00  0.00    +0.000 C 
ATOM     19  C19 UNK     0       3.857   0.230   1.483  0.00  0.00    +0.000 C 
ATOM     20  C20 UNK     0      -2.776   3.121   0.863  0.00  0.00    +0.000 C 
ENDROOT
TORSDOF 0
