REMARK  Name = C:\Users\Maximilian\Desktop\Conformers\converted_pdb\conformers_pdb\Artemisinin_conf_7.pdb
REMARK  3 active torsions:
REMARK  status: ('A' for Active; 'I' for Inactive)
REMARK    1  A    between atoms: C9_9  and  C17_17
REMARK    2  A    between atoms: C14_14  and  C19_19
REMARK    3  A    between atoms: C15_15  and  C20_20
REMARK                            x       y       z     vdW  Elec       q    Type
REMARK                         _______ _______ _______ _____ _____    ______ ____
ROOT
ATOM      1  O1  UNK     0       0.692  -1.315   1.227  0.00  0.00    +0.000 OA
ATOM      2  O2  UNK     0       1.519  -1.695  -1.107  0.00  0.00    +0.000 OA
ATOM      3  O3  UNK     0      -0.717  -1.670  -1.680  0.00  0.00    +0.000 OA
ATOM      4  O4  UNK     0       2.027  -1.260   1.155  0.00  0.00    +0.000 OA
ATOM      5  O5  UNK     0      -2.638  -2.915  -1.607  0.00  0.00    +0.000 OA
ATOM      6  C6  UNK     0       0.058  -0.384   0.352  0.00  0.00    +0.000 C 
ATOM      7  C7  UNK     0       0.596   1.086   0.552  0.00  0.00    +0.000 C 
ATOM      8  C8  UNK     0      -1.457  -0.406   0.720  0.00  0.00    +0.000 C 
ATOM      9  C9  UNK     0      -0.151   2.133  -0.345  0.00  0.00    +0.000 C 
ATOM     10  C10 UNK     0       0.346  -0.904  -1.096  0.00  0.00    +0.000 C 
ATOM     11  C11 UNK     0      -2.284   0.777   0.124  0.00  0.00    +0.000 C 
ATOM     12  C12 UNK     0       2.147   1.269   0.433  0.00  0.00    +0.000 C 
ATOM     13  C13 UNK     0      -1.522   1.648  -0.874  0.00  0.00    +0.000 C 
ATOM     14  C14 UNK     0      -2.051  -1.808   0.438  0.00  0.00    +0.000 C 
ATOM     15  C15 UNK     0       2.491  -1.200  -0.191  0.00  0.00    +0.000 C 
ATOM     16  C16 UNK     0       2.878   0.277  -0.499  0.00  0.00    +0.000 C 
ATOM     17  C17 UNK     0      -0.308   3.474   0.395  0.00  0.00    +0.000 C 
ATOM     18  C18 UNK     0      -1.838  -2.151  -1.003  0.00  0.00    +0.000 C 
ATOM     19  C19 UNK     0      -3.518  -1.956   0.885  0.00  0.00    +0.000 C 
ATOM     20  C20 UNK     0       3.724  -2.099  -0.305  0.00  0.00    +0.000 C 
ENDROOT
TORSDOF 0
