REMARK  Name = C:\Users\Maximilian\Desktop\Conformers\converted_pdb\conformers_pdb\Artemisinin_conf_1.pdb
REMARK  3 active torsions:
REMARK  status: ('A' for Active; 'I' for Inactive)
REMARK    1  A    between atoms: C9_9  and  C17_17
REMARK    2  A    between atoms: C14_14  and  C19_19
REMARK    3  A    between atoms: C15_15  and  C20_20
REMARK                            x       y       z     vdW  Elec       q    Type
REMARK                         _______ _______ _______ _____ _____    ______ ____
ROOT
ATOM      1  O1  UNK     0       0.537  -0.979   1.462  0.00  0.00    +0.000 OA
ATOM      2  O2  UNK     0       1.484  -1.972  -0.637  0.00  0.00    +0.000 OA
ATOM      3  O3  UNK     0      -0.713  -2.106  -1.275  0.00  0.00    +0.000 OA
ATOM      4  O4  UNK     0       1.874  -0.953   1.458  0.00  0.00    +0.000 OA
ATOM      5  O5  UNK     0      -2.452  -3.505  -0.754  0.00  0.00    +0.000 OA
ATOM      6  C6  UNK     0      -0.014  -0.299   0.339  0.00  0.00    +0.000 C 
ATOM      7  C7  UNK     0       0.574   1.174   0.204  0.00  0.00    +0.000 C 
ATOM      8  C8  UNK     0      -1.553  -0.223   0.573  0.00  0.00    +0.000 C 
ATOM      9  C9  UNK     0      -0.181   2.023  -0.878  0.00  0.00    +0.000 C 
ATOM     10  C10 UNK     0       0.329  -1.197  -0.897  0.00  0.00    +0.000 C 
ATOM     11  C11 UNK     0      -2.250   0.584  -0.547  0.00  0.00    +0.000 C 
ATOM     12  C12 UNK     0       2.138   1.270   0.069  0.00  0.00    +0.000 C 
ATOM     13  C13 UNK     0      -1.699   2.001  -0.619  0.00  0.00    +0.000 C 
ATOM     14  C14 UNK     0      -2.141  -1.650   0.737  0.00  0.00    +0.000 C 
ATOM     15  C15 UNK     0       2.416  -1.275   0.178  0.00  0.00    +0.000 C 
ATOM     16  C16 UNK     0       2.871   0.043  -0.505  0.00  0.00    +0.000 C 
ATOM     17  C17 UNK     0       0.270   3.501  -0.909  0.00  0.00    +0.000 C 
ATOM     18  C18 UNK     0      -1.790  -2.472  -0.466  0.00  0.00    +0.000 C 
ATOM     19  C19 UNK     0      -3.654  -1.649   1.013  0.00  0.00    +0.000 C 
ATOM     20  C20 UNK     0       3.617  -2.199   0.392  0.00  0.00    +0.000 C 
ENDROOT
TORSDOF 0
