REMARK  Name = C:\Users\Maximilian\Desktop\Conformers\converted_pdb\conformers_pdb\Asiatic Acid_conf_1.pdb
REMARK  12 active torsions:
REMARK  status: ('A' for Active; 'I' for Inactive)
REMARK    1  A    between atoms: C6_1  and  C20_15
REMARK    2  A    between atoms: C8_3  and  C25_20
REMARK    3  A    between atoms: C9_4  and  C26_21
REMARK    4  A    between atoms: C14_9  and  C31_25
REMARK    5  A    between atoms: C14_9  and  C30_29
REMARK    6  A    between atoms: C19_14  and  C33_36
REMARK    7  A    between atoms: C22_17  and  O1_32
REMARK    8  A    between atoms: C24_19  and  O2_34
REMARK    9  A    between atoms: C27_22  and  C34_27
REMARK   10  A    between atoms: C29_24  and  C35_28
REMARK   11  A    between atoms: C30_29  and  O3_30
REMARK   12  A    between atoms: C33_36  and  O4_38
REMARK                            x       y       z     vdW  Elec       q    Type
REMARK                         _______ _______ _______ _____ _____    ______ ____
ROOT
ATOM      1  C6  UNK     0       0.385   0.917  -0.488  0.00  0.00    +0.000 C 
ATOM      2  C7  UNK     0       1.095   0.018   0.604  0.00  0.00    +0.000 C 
ATOM      3  C8  UNK     0       2.682   0.169   0.781  0.00  0.00    +0.000 C 
ATOM      4  C9  UNK     0      -1.110   0.343  -0.759  0.00  0.00    +0.000 C 
ATOM      5  C10 UNK     0       3.326   0.082  -0.654  0.00  0.00    +0.000 C 
ATOM      6  C11 UNK     0       1.228   0.904  -1.805  0.00  0.00    +0.000 C 
ATOM      7  C12 UNK     0      -1.858   0.079   0.570  0.00  0.00    +0.000 C 
ATOM      8  C13 UNK     0       2.724   1.158  -1.596  0.00  0.00    +0.000 C 
ATOM      9  C14 UNK     0       4.903  -0.075  -0.713  0.00  0.00    +0.000 C 
ATOM     10  C15 UNK     0      -3.401  -0.029   0.631  0.00  0.00    +0.000 C 
ATOM     11  C16 UNK     0       0.291   0.034   1.924  0.00  0.00    +0.000 C 
ATOM     12  C17 UNK     0       3.201  -1.054   1.607  0.00  0.00    +0.000 C 
ATOM     13  C18 UNK     0      -1.948   1.353  -1.617  0.00  0.00    +0.000 C 
ATOM     14  C19 UNK     0      -4.129   0.986  -0.327  0.00  0.00    +0.000 C 
ATOM     15  C20 UNK     0       0.305   2.398   0.006  0.00  0.00    +0.000 C 
ATOM     16  C21 UNK     0      -3.437   1.002  -1.715  0.00  0.00    +0.000 C 
ATOM     17  C22 UNK     0       5.310  -1.286   0.194  0.00  0.00    +0.000 C 
ATOM     18  C23 UNK     0      -1.187  -0.134   1.728  0.00  0.00    +0.000 C 
ATOM     19  C24 UNK     0       4.734  -1.223   1.619  0.00  0.00    +0.000 C 
ATOM     20  C25 UNK     0       3.082   1.479   1.546  0.00  0.00    +0.000 C 
ATOM     21  C26 UNK     0      -1.078  -1.006  -1.551  0.00  0.00    +0.000 C 
ATOM     22  C27 UNK     0      -3.981  -1.477   0.475  0.00  0.00    +0.000 C 
ATOM     23  C28 UNK     0      -5.627   0.571  -0.539  0.00  0.00    +0.000 C 
ATOM     24  C29 UNK     0      -5.484  -1.511   0.917  0.00  0.00    +0.000 C 
ATOM     25  C31 UNK     0       5.664   1.210  -0.286  0.00  0.00    +0.000 C 
ATOM     26  C32 UNK     0      -6.204  -0.157   0.678  0.00  0.00    +0.000 C 
ATOM     27  C34 UNK     0      -3.171  -2.535   1.249  0.00  0.00    +0.000 C 
ATOM     28  C35 UNK     0      -6.249  -2.649   0.215  0.00  0.00    +0.000 C 
ENDROOT
BRANCH  17  29
ATOM     29  O1  UNK     0       6.714  -1.378   0.279  0.00  0.00    +0.000 OA
ATOM     30  H77 UNK     0       6.951  -2.340   0.269  0.00  0.00    +0.000 HD
ENDBRANCH  17  29
BRANCH  19  31
ATOM     31  O2  UNK     0       5.054  -2.420   2.283  0.00  0.00    +0.000 OA
ATOM     32  H78 UNK     0       4.917  -2.260   3.254  0.00  0.00    +0.000 HD
ENDBRANCH  19  31
BRANCH  14  33
ATOM     33  C33 UNK     0      -4.090   2.396   0.264  0.00  0.00    +0.000 C 
ATOM     34  O5  UNK     0      -4.732   3.332  -0.290  0.00  0.00    +0.000 OA
BRANCH  33  35
ATOM     35  O4  UNK     0      -3.303   2.687   1.377  0.00  0.00    +0.000 OA
ATOM     36  H83 UNK     0      -3.263   3.626   1.756  0.00  0.00    +0.000 HD
ENDBRANCH  33  35
ENDBRANCH  14  33
BRANCH   9  37
ATOM     37  C30 UNK     0       5.356  -0.446  -2.170  0.00  0.00    +0.000 C 
BRANCH  37  38
ATOM     38  O3  UNK     0       5.465   0.685  -2.993  0.00  0.00    +0.000 OA
ATOM     39  H82 UNK     0       5.702   0.347  -3.897  0.00  0.00    +0.000 HD
ENDBRANCH  37  38
ENDBRANCH   9  37
TORSDOF 6
