REMARK  Name = C:\Users\Maximilian\Desktop\Conformers\converted_pdb\conformers_pdb\Asiatic Acid_conf_23.pdb
REMARK  12 active torsions:
REMARK  status: ('A' for Active; 'I' for Inactive)
REMARK    1  A    between atoms: C6_1  and  C20_15
REMARK    2  A    between atoms: C8_3  and  C25_20
REMARK    3  A    between atoms: C9_4  and  C26_21
REMARK    4  A    between atoms: C14_9  and  C31_25
REMARK    5  A    between atoms: C14_9  and  C30_29
REMARK    6  A    between atoms: C19_14  and  C33_36
REMARK    7  A    between atoms: C22_17  and  O1_32
REMARK    8  A    between atoms: C24_19  and  O2_34
REMARK    9  A    between atoms: C27_22  and  C34_27
REMARK   10  A    between atoms: C29_24  and  C35_28
REMARK   11  A    between atoms: C30_29  and  O3_30
REMARK   12  A    between atoms: C33_36  and  O4_38
REMARK                            x       y       z     vdW  Elec       q    Type
REMARK                         _______ _______ _______ _____ _____    ______ ____
ROOT
ATOM      1  C6  UNK     0       0.351   0.976   0.880  0.00  0.00    +0.000 C 
ATOM      2  C7  UNK     0       1.156  -0.352   0.600  0.00  0.00    +0.000 C 
ATOM      3  C8  UNK     0       2.733  -0.236   0.600  0.00  0.00    +0.000 C 
ATOM      4  C9  UNK     0      -1.093   0.806   0.179  0.00  0.00    +0.000 C 
ATOM      5  C10 UNK     0       3.082   0.714  -0.603  0.00  0.00    +0.000 C 
ATOM      6  C11 UNK     0       1.154   2.245   0.397  0.00  0.00    +0.000 C 
ATOM      7  C12 UNK     0      -1.733  -0.537   0.636  0.00  0.00    +0.000 C 
ATOM      8  C13 UNK     0       2.308   2.067  -0.615  0.00  0.00    +0.000 C 
ATOM      9  C14 UNK     0       4.609   0.810  -1.004  0.00  0.00    +0.000 C 
ATOM     10  C15 UNK     0      -3.248  -0.785   0.508  0.00  0.00    +0.000 C 
ATOM     11  C16 UNK     0       0.519  -1.523   1.363  0.00  0.00    +0.000 C 
ATOM     12  C17 UNK     0       3.363  -1.633   0.298  0.00  0.00    +0.000 C 
ATOM     13  C18 UNK     0      -2.050   1.991   0.554  0.00  0.00    +0.000 C 
ATOM     14  C19 UNK     0      -4.100   0.471   0.918  0.00  0.00    +0.000 C 
ATOM     15  C20 UNK     0       0.131   1.166   2.431  0.00  0.00    +0.000 C 
ATOM     16  C21 UNK     0      -3.529   1.742   0.231  0.00  0.00    +0.000 C 
ATOM     17  C22 UNK     0       5.161  -0.642  -1.224  0.00  0.00    +0.000 C 
ATOM     18  C23 UNK     0      -0.978  -1.565   1.131  0.00  0.00    +0.000 C 
ATOM     19  C24 UNK     0       4.863  -1.601  -0.049  0.00  0.00    +0.000 C 
ATOM     20  C25 UNK     0       3.264   0.257   1.972  0.00  0.00    +0.000 C 
ATOM     21  C26 UNK     0      -0.964   0.794  -1.378  0.00  0.00    +0.000 C 
ATOM     22  C27 UNK     0      -3.692  -1.361  -0.873  0.00  0.00    +0.000 C 
ATOM     23  C28 UNK     0      -5.593   0.322   0.470  0.00  0.00    +0.000 C 
ATOM     24  C29 UNK     0      -5.188  -1.828  -0.831  0.00  0.00    +0.000 C 
ATOM     25  C31 UNK     0       5.468   1.562   0.058  0.00  0.00    +0.000 C 
ATOM     26  C32 UNK     0      -6.013  -1.137   0.284  0.00  0.00    +0.000 C 
ATOM     27  C34 UNK     0      -2.799  -2.532  -1.333  0.00  0.00    +0.000 C 
ATOM     28  C35 UNK     0      -5.863  -1.638  -2.200  0.00  0.00    +0.000 C 
ENDROOT
BRANCH  17  29
ATOM     29  O1  UNK     0       6.552  -0.610  -1.441  0.00  0.00    +0.000 OA
ATOM     30  H77 UNK     0       6.700  -0.628  -2.424  0.00  0.00    +0.000 HD
ENDBRANCH  17  29
BRANCH  19  31
ATOM     31  O2  UNK     0       5.254  -2.903  -0.405  0.00  0.00    +0.000 OA
ATOM     32  H78 UNK     0       6.235  -2.964  -0.270  0.00  0.00    +0.000 HD
ENDBRANCH  19  31
BRANCH  14  33
ATOM     33  C33 UNK     0      -4.087   0.633   2.438  0.00  0.00    +0.000 C 
ATOM     34  O5  UNK     0      -4.162   1.781   2.960  0.00  0.00    +0.000 OA
BRANCH  33  35
ATOM     35  O4  UNK     0      -4.110  -0.488   3.270  0.00  0.00    +0.000 OA
ATOM     36  H83 UNK     0      -4.133  -0.388   4.277  0.00  0.00    +0.000 HD
ENDBRANCH  33  35
ENDBRANCH  14  33
BRANCH   9  37
ATOM     37  C30 UNK     0       4.758   1.600  -2.349  0.00  0.00    +0.000 C 
BRANCH  37  38
ATOM     38  O3  UNK     0       3.935   1.083  -3.364  0.00  0.00    +0.000 OA
ATOM     39  H82 UNK     0       4.478   0.433  -3.881  0.00  0.00    +0.000 HD
ENDBRANCH  37  38
ENDBRANCH   9  37
TORSDOF 6
