REMARK  Name = C:\Users\Maximilian\Desktop\Conformers\converted_pdb\conformers_pdb\Asiatic Acid_conf_39.pdb
REMARK  12 active torsions:
REMARK  status: ('A' for Active; 'I' for Inactive)
REMARK    1  A    between atoms: C6_1  and  C20_15
REMARK    2  A    between atoms: C8_3  and  C25_20
REMARK    3  A    between atoms: C9_4  and  C26_21
REMARK    4  A    between atoms: C14_9  and  C31_25
REMARK    5  A    between atoms: C14_9  and  C30_29
REMARK    6  A    between atoms: C19_14  and  C33_36
REMARK    7  A    between atoms: C22_17  and  O1_32
REMARK    8  A    between atoms: C24_19  and  O2_34
REMARK    9  A    between atoms: C27_22  and  C34_27
REMARK   10  A    between atoms: C29_24  and  C35_28
REMARK   11  A    between atoms: C30_29  and  O3_30
REMARK   12  A    between atoms: C33_36  and  O4_38
REMARK                            x       y       z     vdW  Elec       q    Type
REMARK                         _______ _______ _______ _____ _____    ______ ____
ROOT
ATOM      1  C6  UNK     0       0.328  -0.076  -0.814  0.00  0.00    +0.000 C 
ATOM      2  C7  UNK     0       1.118   0.403   0.461  0.00  0.00    +0.000 C 
ATOM      3  C8  UNK     0       2.629   0.850   0.243  0.00  0.00    +0.000 C 
ATOM      4  C9  UNK     0      -1.063  -0.728  -0.319  0.00  0.00    +0.000 C 
ATOM      5  C10 UNK     0       3.363  -0.339  -0.495  0.00  0.00    +0.000 C 
ATOM      6  C11 UNK     0       1.190  -1.114  -1.602  0.00  0.00    +0.000 C 
ATOM      7  C12 UNK     0      -1.875   0.366   0.393  0.00  0.00    +0.000 C 
ATOM      8  C13 UNK     0       2.652  -0.691  -1.831  0.00  0.00    +0.000 C 
ATOM      9  C14 UNK     0       4.949  -0.253  -0.566  0.00  0.00    +0.000 C 
ATOM     10  C15 UNK     0      -3.411   0.400   0.374  0.00  0.00    +0.000 C 
ATOM     11  C16 UNK     0       0.271   1.364   1.350  0.00  0.00    +0.000 C 
ATOM     12  C17 UNK     0       3.283   1.023   1.651  0.00  0.00    +0.000 C 
ATOM     13  C18 UNK     0      -1.830  -1.374  -1.527  0.00  0.00    +0.000 C 
ATOM     14  C19 UNK     0      -4.006  -0.128  -0.983  0.00  0.00    +0.000 C 
ATOM     15  C20 UNK     0       0.047   1.144  -1.766  0.00  0.00    +0.000 C 
ATOM     16  C21 UNK     0      -3.343  -1.484  -1.340  0.00  0.00    +0.000 C 
ATOM     17  C22 UNK     0       5.493  -0.011   0.889  0.00  0.00    +0.000 C 
ATOM     18  C23 UNK     0      -1.229   1.292   1.149  0.00  0.00    +0.000 C 
ATOM     19  C24 UNK     0       4.816   1.171   1.622  0.00  0.00    +0.000 C 
ATOM     20  C25 UNK     0       2.728   2.209  -0.531  0.00  0.00    +0.000 C 
ATOM     21  C26 UNK     0      -0.888  -1.864   0.743  0.00  0.00    +0.000 C 
ATOM     22  C27 UNK     0      -4.089  -0.312   1.593  0.00  0.00    +0.000 C 
ATOM     23  C28 UNK     0      -5.551  -0.367  -0.879  0.00  0.00    +0.000 C 
ATOM     24  C29 UNK     0      -5.625   0.001   1.637  0.00  0.00    +0.000 C 
ATOM     25  C31 UNK     0       5.444   0.843  -1.546  0.00  0.00    +0.000 C 
ATOM     26  C32 UNK     0      -6.200   0.418   0.261  0.00  0.00    +0.000 C 
ATOM     27  C34 UNK     0      -3.450   0.054   2.947  0.00  0.00    +0.000 C 
ATOM     28  C35 UNK     0      -6.415  -1.185   2.217  0.00  0.00    +0.000 C 
ENDROOT
BRANCH  17  29
ATOM     29  O1  UNK     0       6.894   0.143   0.915  0.00  0.00    +0.000 OA
ATOM     30  H77 UNK     0       7.115   1.047   0.571  0.00  0.00    +0.000 HD
ENDBRANCH  17  29
BRANCH  19  31
ATOM     31  O2  UNK     0       5.313   1.281   2.934  0.00  0.00    +0.000 OA
ATOM     32  H78 UNK     0       5.092   0.442   3.417  0.00  0.00    +0.000 HD
ENDBRANCH  19  31
BRANCH  14  33
ATOM     33  C33 UNK     0      -3.759   0.871  -2.112  0.00  0.00    +0.000 C 
ATOM     34  O5  UNK     0      -3.453   2.070  -1.869  0.00  0.00    +0.000 OA
BRANCH  33  35
ATOM     35  O4  UNK     0      -3.925   0.471  -3.436  0.00  0.00    +0.000 OA
ATOM     36  H83 UNK     0      -3.778   1.122  -4.198  0.00  0.00    +0.000 HD
ENDBRANCH  33  35
ENDBRANCH  14  33
BRANCH   9  37
ATOM     37  C30 UNK     0       5.513  -1.623  -1.075  0.00  0.00    +0.000 C 
BRANCH  37  38
ATOM     38  O3  UNK     0       6.909  -1.688  -0.957  0.00  0.00    +0.000 OA
ATOM     39  H82 UNK     0       7.172  -2.601  -1.245  0.00  0.00    +0.000 HD
ENDBRANCH  37  38
ENDBRANCH   9  37
TORSDOF 6
