REMARK  Name = C:\Users\Maximilian\Desktop\Conformers\converted_pdb\conformers_pdb\Asiatic Acid_conf_34.pdb
REMARK  12 active torsions:
REMARK  status: ('A' for Active; 'I' for Inactive)
REMARK    1  A    between atoms: C6_1  and  C20_15
REMARK    2  A    between atoms: C8_3  and  C25_20
REMARK    3  A    between atoms: C9_4  and  C26_21
REMARK    4  A    between atoms: C14_9  and  C31_25
REMARK    5  A    between atoms: C14_9  and  C30_29
REMARK    6  A    between atoms: C19_14  and  C33_36
REMARK    7  A    between atoms: C22_17  and  O1_32
REMARK    8  A    between atoms: C24_19  and  O2_34
REMARK    9  A    between atoms: C27_22  and  C34_27
REMARK   10  A    between atoms: C29_24  and  C35_28
REMARK   11  A    between atoms: C30_29  and  O3_30
REMARK   12  A    between atoms: C33_36  and  O4_38
REMARK                            x       y       z     vdW  Elec       q    Type
REMARK                         _______ _______ _______ _____ _____    ______ ____
ROOT
ATOM      1  C6  UNK     0       0.346   0.921  -0.520  0.00  0.00    +0.000 C 
ATOM      2  C7  UNK     0       1.109   0.047   0.557  0.00  0.00    +0.000 C 
ATOM      3  C8  UNK     0       2.703   0.195   0.648  0.00  0.00    +0.000 C 
ATOM      4  C9  UNK     0      -1.159   0.340  -0.702  0.00  0.00    +0.000 C 
ATOM      5  C10 UNK     0       3.268   0.067  -0.817  0.00  0.00    +0.000 C 
ATOM      6  C11 UNK     0       1.121   0.882  -1.877  0.00  0.00    +0.000 C 
ATOM      7  C12 UNK     0      -1.841   0.125   0.670  0.00  0.00    +0.000 C 
ATOM      8  C13 UNK     0       2.626   1.132  -1.747  0.00  0.00    +0.000 C 
ATOM      9  C14 UNK     0       4.838  -0.119  -0.968  0.00  0.00    +0.000 C 
ATOM     10  C15 UNK     0      -3.378   0.033   0.811  0.00  0.00    +0.000 C 
ATOM     11  C16 UNK     0       0.374   0.095   1.916  0.00  0.00    +0.000 C 
ATOM     12  C17 UNK     0       3.256  -1.008   1.479  0.00  0.00    +0.000 C 
ATOM     13  C18 UNK     0      -2.034   1.319  -1.557  0.00  0.00    +0.000 C 
ATOM     14  C19 UNK     0      -4.149   1.016  -0.147  0.00  0.00    +0.000 C 
ATOM     15  C20 UNK     0       0.290   2.413  -0.054  0.00  0.00    +0.000 C 
ATOM     16  C21 UNK     0      -3.528   0.972  -1.567  0.00  0.00    +0.000 C 
ATOM     17  C22 UNK     0       5.291  -1.307  -0.050  0.00  0.00    +0.000 C 
ATOM     18  C23 UNK     0      -1.114  -0.057   1.800  0.00  0.00    +0.000 C 
ATOM     19  C24 UNK     0       4.786  -1.190   1.403  0.00  0.00    +0.000 C 
ATOM     20  C25 UNK     0       3.145   1.522   1.358  0.00  0.00    +0.000 C 
ATOM     21  C26 UNK     0      -1.167  -1.038  -1.446  0.00  0.00    +0.000 C 
ATOM     22  C27 UNK     0      -3.971  -1.416   0.735  0.00  0.00    +0.000 C 
ATOM     23  C28 UNK     0      -5.659   0.607  -0.265  0.00  0.00    +0.000 C 
ATOM     24  C29 UNK     0      -5.450  -1.428   1.249  0.00  0.00    +0.000 C 
ATOM     25  C31 UNK     0       5.625   1.176  -0.638  0.00  0.00    +0.000 C 
ATOM     26  C32 UNK     0      -6.174  -0.078   1.004  0.00  0.00    +0.000 C 
ATOM     27  C34 UNK     0      -3.128  -2.451   1.505  0.00  0.00    +0.000 C 
ATOM     28  C35 UNK     0      -6.252  -2.583   0.618  0.00  0.00    +0.000 C 
ENDROOT
BRANCH  17  29
ATOM     29  O1  UNK     0       6.695  -1.404  -0.029  0.00  0.00    +0.000 OA
ATOM     30  H77 UNK     0       6.921  -2.355   0.148  0.00  0.00    +0.000 HD
ENDBRANCH  17  29
BRANCH  19  31
ATOM     31  O2  UNK     0       5.165  -2.323   2.147  0.00  0.00    +0.000 OA
ATOM     32  H78 UNK     0       4.746  -3.118   1.725  0.00  0.00    +0.000 HD
ENDBRANCH  19  31
BRANCH  14  33
ATOM     33  C33 UNK     0      -4.069   2.448   0.383  0.00  0.00    +0.000 C 
ATOM     34  O5  UNK     0      -4.734   3.366  -0.173  0.00  0.00    +0.000 OA
BRANCH  33  35
ATOM     35  O4  UNK     0      -3.204   2.779   1.426  0.00  0.00    +0.000 OA
ATOM     36  H83 UNK     0      -3.124   3.735   1.750  0.00  0.00    +0.000 HD
ENDBRANCH  33  35
ENDBRANCH  14  33
BRANCH   9  37
ATOM     37  C30 UNK     0       5.165  -0.502  -2.455  0.00  0.00    +0.000 C 
BRANCH  37  38
ATOM     38  O3  UNK     0       6.477  -0.984  -2.608  0.00  0.00    +0.000 OA
ATOM     39  H82 UNK     0       7.044  -0.219  -2.889  0.00  0.00    +0.000 HD
ENDBRANCH  37  38
ENDBRANCH   9  37
TORSDOF 6
