REMARK  Name = C:\Users\Maximilian\Desktop\Conformers\converted_pdb\conformers_pdb\Asiatic Acid_conf_33.pdb
REMARK  12 active torsions:
REMARK  status: ('A' for Active; 'I' for Inactive)
REMARK    1  A    between atoms: C6_1  and  C20_15
REMARK    2  A    between atoms: C8_3  and  C25_20
REMARK    3  A    between atoms: C9_4  and  C26_21
REMARK    4  A    between atoms: C14_9  and  C31_25
REMARK    5  A    between atoms: C14_9  and  C30_29
REMARK    6  A    between atoms: C19_14  and  C33_36
REMARK    7  A    between atoms: C22_17  and  O1_32
REMARK    8  A    between atoms: C24_19  and  O2_34
REMARK    9  A    between atoms: C27_22  and  C34_27
REMARK   10  A    between atoms: C29_24  and  C35_28
REMARK   11  A    between atoms: C30_29  and  O3_30
REMARK   12  A    between atoms: C33_36  and  O4_38
REMARK                            x       y       z     vdW  Elec       q    Type
REMARK                         _______ _______ _______ _____ _____    ______ ____
ROOT
ATOM      1  C6  UNK     0      -0.405  -0.679  -0.476  0.00  0.00    +0.000 C 
ATOM      2  C7  UNK     0      -1.120   0.166   0.647  0.00  0.00    +0.000 C 
ATOM      3  C8  UNK     0      -2.643  -0.179   0.946  0.00  0.00    +0.000 C 
ATOM      4  C9  UNK     0       1.009   0.030  -0.798  0.00  0.00    +0.000 C 
ATOM      5  C10 UNK     0      -3.405  -0.112  -0.433  0.00  0.00    +0.000 C 
ATOM      6  C11 UNK     0      -1.312  -0.744  -1.749  0.00  0.00    +0.000 C 
ATOM      7  C12 UNK     0       1.862   0.009   0.481  0.00  0.00    +0.000 C 
ATOM      8  C13 UNK     0      -2.785  -1.089  -1.467  0.00  0.00    +0.000 C 
ATOM      9  C14 UNK     0      -4.988  -0.122  -0.356  0.00  0.00    +0.000 C 
ATOM     10  C15 UNK     0       3.398  -0.056   0.448  0.00  0.00    +0.000 C 
ATOM     11  C16 UNK     0      -0.226   0.336   1.913  0.00  0.00    +0.000 C 
ATOM     12  C17 UNK     0      -3.223   0.942   1.868  0.00  0.00    +0.000 C 
ATOM     13  C18 UNK     0       1.717  -0.674  -2.009  0.00  0.00    +0.000 C 
ATOM     14  C19 UNK     0       3.934  -0.935  -0.740  0.00  0.00    +0.000 C 
ATOM     15  C20 UNK     0      -0.175  -2.152   0.022  0.00  0.00    +0.000 C 
ATOM     16  C21 UNK     0       3.236  -0.499  -2.056  0.00  0.00    +0.000 C 
ATOM     17  C22 UNK     0      -5.453   0.991   0.642  0.00  0.00    +0.000 C 
ATOM     18  C23 UNK     0       1.261   0.162   1.690  0.00  0.00    +0.000 C 
ATOM     19  C24 UNK     0      -4.758   0.915   2.014  0.00  0.00    +0.000 C 
ATOM     20  C25 UNK     0      -2.797  -1.558   1.676  0.00  0.00    +0.000 C 
ATOM     21  C26 UNK     0       0.882   1.542  -1.183  0.00  0.00    +0.000 C 
ATOM     22  C27 UNK     0       4.104   1.342   0.474  0.00  0.00    +0.000 C 
ATOM     23  C28 UNK     0       5.478  -0.754  -0.939  0.00  0.00    +0.000 C 
ATOM     24  C29 UNK     0       5.646   1.185   0.703  0.00  0.00    +0.000 C 
ATOM     25  C31 UNK     0      -5.560  -1.505   0.062  0.00  0.00    +0.000 C 
ATOM     26  C32 UNK     0       6.182  -0.213   0.307  0.00  0.00    +0.000 C 
ATOM     27  C34 UNK     0       3.523   2.299   1.534  0.00  0.00    +0.000 C 
ATOM     28  C35 UNK     0       6.429   2.293  -0.025  0.00  0.00    +0.000 C 
ENDROOT
BRANCH  17  29
ATOM     29  O1  UNK     0      -6.848   0.923   0.824  0.00  0.00    +0.000 OA
ATOM     30  H77 UNK     0      -7.161   1.837   1.053  0.00  0.00    +0.000 HD
ENDBRANCH  17  29
BRANCH  19  31
ATOM     31  O2  UNK     0      -5.162   2.018   2.786  0.00  0.00    +0.000 OA
ATOM     32  H78 UNK     0      -4.915   1.820   3.727  0.00  0.00    +0.000 HD
ENDBRANCH  19  31
BRANCH  14  33
ATOM     33  C33 UNK     0       3.662  -2.417  -0.485  0.00  0.00    +0.000 C 
ATOM     34  O5  UNK     0       3.441  -2.848   0.679  0.00  0.00    +0.000 OA
BRANCH  33  35
ATOM     35  O4  UNK     0       3.726  -3.325  -1.540  0.00  0.00    +0.000 OA
ATOM     36  H83 UNK     0       3.567  -4.313  -1.388  0.00  0.00    +0.000 HD
ENDBRANCH  33  35
ENDBRANCH  14  33
BRANCH   9  37
ATOM     37  C30 UNK     0      -5.614   0.209  -1.752  0.00  0.00    +0.000 C 
BRANCH  37  38
ATOM     38  O3  UNK     0      -5.117   1.412  -2.281  0.00  0.00    +0.000 OA
ATOM     39  H82 UNK     0      -4.406   1.175  -2.930  0.00  0.00    +0.000 HD
ENDBRANCH  37  38
ENDBRANCH   9  37
TORSDOF 6
