REMARK  Name = C:\Users\Maximilian\Desktop\Conformers\converted_pdb\conformers_pdb\Asiatic Acid_conf_51.pdb
REMARK  12 active torsions:
REMARK  status: ('A' for Active; 'I' for Inactive)
REMARK    1  A    between atoms: C6_1  and  C20_15
REMARK    2  A    between atoms: C8_3  and  C25_20
REMARK    3  A    between atoms: C9_4  and  C26_21
REMARK    4  A    between atoms: C14_9  and  C31_25
REMARK    5  A    between atoms: C14_9  and  C30_29
REMARK    6  A    between atoms: C19_14  and  C33_36
REMARK    7  A    between atoms: C22_17  and  O1_32
REMARK    8  A    between atoms: C24_19  and  O2_34
REMARK    9  A    between atoms: C27_22  and  C34_27
REMARK   10  A    between atoms: C29_24  and  C35_28
REMARK   11  A    between atoms: C30_29  and  O3_30
REMARK   12  A    between atoms: C33_36  and  O4_38
REMARK                            x       y       z     vdW  Elec       q    Type
REMARK                         _______ _______ _______ _____ _____    ______ ____
ROOT
ATOM      1  C6  UNK     0       0.417   0.660  -0.429  0.00  0.00    +0.000 C 
ATOM      2  C7  UNK     0       1.113  -0.152   0.732  0.00  0.00    +0.000 C 
ATOM      3  C8  UNK     0       2.659   0.146   1.014  0.00  0.00    +0.000 C 
ATOM      4  C9  UNK     0      -1.055   0.036  -0.699  0.00  0.00    +0.000 C 
ATOM      5  C10 UNK     0       3.432   0.039  -0.346  0.00  0.00    +0.000 C 
ATOM      6  C11 UNK     0       1.334   0.570  -1.697  0.00  0.00    +0.000 C 
ATOM      7  C12 UNK     0      -1.863  -0.005   0.617  0.00  0.00    +0.000 C 
ATOM      8  C13 UNK     0       2.801   0.935  -1.438  0.00  0.00    +0.000 C 
ATOM      9  C14 UNK     0       5.023   0.124  -0.269  0.00  0.00    +0.000 C 
ATOM     10  C15 UNK     0      -3.407   0.077   0.637  0.00  0.00    +0.000 C 
ATOM     11  C16 UNK     0       0.250  -0.225   2.019  0.00  0.00    +0.000 C 
ATOM     12  C17 UNK     0       3.206  -0.993   1.934  0.00  0.00    +0.000 C 
ATOM     13  C18 UNK     0      -1.845   0.854  -1.788  0.00  0.00    +0.000 C 
ATOM     14  C19 UNK     0      -4.009   1.104  -0.413  0.00  0.00    +0.000 C 
ATOM     15  C20 UNK     0       0.272   2.167  -0.052  0.00  0.00    +0.000 C 
ATOM     16  C21 UNK     0      -2.892   1.819  -1.213  0.00  0.00    +0.000 C 
ATOM     17  C22 UNK     0       5.581  -0.139   1.184  0.00  0.00    +0.000 C 
ATOM     18  C23 UNK     0      -1.235  -0.145   1.808  0.00  0.00    +0.000 C 
ATOM     19  C24 UNK     0       4.748  -1.118   2.052  0.00  0.00    +0.000 C 
ATOM     20  C25 UNK     0       2.872   1.520   1.732  0.00  0.00    +0.000 C 
ATOM     21  C26 UNK     0      -0.995  -1.440  -1.206  0.00  0.00    +0.000 C 
ATOM     22  C27 UNK     0      -4.108  -1.331   0.606  0.00  0.00    +0.000 C 
ATOM     23  C28 UNK     0      -4.963   0.379  -1.411  0.00  0.00    +0.000 C 
ATOM     24  C29 UNK     0      -5.653  -1.123   0.577  0.00  0.00    +0.000 C 
ATOM     25  C31 UNK     0       5.571   1.499  -0.766  0.00  0.00    +0.000 C 
ATOM     26  C32 UNK     0      -6.097  -0.393  -0.716  0.00  0.00    +0.000 C 
ATOM     27  C34 UNK     0      -3.667  -2.216   1.792  0.00  0.00    +0.000 C 
ATOM     28  C35 UNK     0      -6.457  -2.429   0.727  0.00  0.00    +0.000 C 
ENDROOT
BRANCH  17  29
ATOM     29  O1  UNK     0       5.733   1.065   1.901  0.00  0.00    +0.000 OA
ATOM     30  H77 UNK     0       6.681   1.354   1.825  0.00  0.00    +0.000 HD
ENDBRANCH  17  29
BRANCH  19  31
ATOM     31  O2  UNK     0       5.123  -2.448   1.786  0.00  0.00    +0.000 OA
ATOM     32  H78 UNK     0       6.001  -2.601   2.225  0.00  0.00    +0.000 HD
ENDBRANCH  19  31
BRANCH  14  33
ATOM     33  C33 UNK     0      -4.771   2.216   0.312  0.00  0.00    +0.000 C 
ATOM     34  O5  UNK     0      -5.861   2.662  -0.141  0.00  0.00    +0.000 OA
BRANCH  33  35
ATOM     35  O4  UNK     0      -4.210   2.827   1.432  0.00  0.00    +0.000 OA
ATOM     36  H83 UNK     0      -4.685   3.587   1.903  0.00  0.00    +0.000 HD
ENDBRANCH  33  35
ENDBRANCH  14  33
BRANCH   9  37
ATOM     37  C30 UNK     0       5.634  -0.929  -1.250  0.00  0.00    +0.000 C 
BRANCH  37  38
ATOM     38  O3  UNK     0       5.288  -2.238  -0.887  0.00  0.00    +0.000 OA
ATOM     39  H82 UNK     0       5.725  -2.835  -1.549  0.00  0.00    +0.000 HD
ENDBRANCH  37  38
ENDBRANCH   9  37
TORSDOF 6
