REMARK  Name = C:\Users\Maximilian\Desktop\Conformers\converted_pdb\conformers_pdb\Asiatic Acid_conf_38.pdb
REMARK  12 active torsions:
REMARK  status: ('A' for Active; 'I' for Inactive)
REMARK    1  A    between atoms: C6_1  and  C20_15
REMARK    2  A    between atoms: C8_3  and  C25_20
REMARK    3  A    between atoms: C9_4  and  C26_21
REMARK    4  A    between atoms: C14_9  and  C31_25
REMARK    5  A    between atoms: C14_9  and  C30_29
REMARK    6  A    between atoms: C19_14  and  C33_36
REMARK    7  A    between atoms: C22_17  and  O1_32
REMARK    8  A    between atoms: C24_19  and  O2_34
REMARK    9  A    between atoms: C27_22  and  C34_27
REMARK   10  A    between atoms: C29_24  and  C35_28
REMARK   11  A    between atoms: C30_29  and  O3_30
REMARK   12  A    between atoms: C33_36  and  O4_38
REMARK                            x       y       z     vdW  Elec       q    Type
REMARK                         _______ _______ _______ _____ _____    ______ ____
ROOT
ATOM      1  C6  UNK     0      -0.419  -1.125  -0.192  0.00  0.00    +0.000 C 
ATOM      2  C7  UNK     0      -0.923   0.012   0.783  0.00  0.00    +0.000 C 
ATOM      3  C8  UNK     0      -2.484   0.046   1.160  0.00  0.00    +0.000 C 
ATOM      4  C9  UNK     0       1.053  -0.715  -0.751  0.00  0.00    +0.000 C 
ATOM      5  C10 UNK     0      -3.299  -0.089  -0.183  0.00  0.00    +0.000 C 
ATOM      6  C11 UNK     0      -1.439  -1.308  -1.368  0.00  0.00    +0.000 C 
ATOM      7  C12 UNK     0       1.982  -0.213   0.391  0.00  0.00    +0.000 C 
ATOM      8  C13 UNK     0      -2.901  -1.390  -0.928  0.00  0.00    +0.000 C 
ATOM      9  C14 UNK     0      -4.852   0.208  -0.108  0.00  0.00    +0.000 C 
ATOM     10  C15 UNK     0       3.507  -0.049   0.169  0.00  0.00    +0.000 C 
ATOM     11  C16 UNK     0       0.039   0.144   1.989  0.00  0.00    +0.000 C 
ATOM     12  C17 UNK     0      -2.802   1.454   1.761  0.00  0.00    +0.000 C 
ATOM     13  C18 UNK     0       1.745  -1.941  -1.426  0.00  0.00    +0.000 C 
ATOM     14  C19 UNK     0       4.106  -1.235  -0.698  0.00  0.00    +0.000 C 
ATOM     15  C20 UNK     0      -0.348  -2.486   0.577  0.00  0.00    +0.000 C 
ATOM     16  C21 UNK     0       3.182  -1.655  -1.878  0.00  0.00    +0.000 C 
ATOM     17  C22 UNK     0      -5.070   1.600   0.586  0.00  0.00    +0.000 C 
ATOM     18  C23 UNK     0       1.490   0.155   1.598  0.00  0.00    +0.000 C 
ATOM     19  C24 UNK     0      -4.300   1.767   1.917  0.00  0.00    +0.000 C 
ATOM     20  C25 UNK     0      -2.876  -1.044   2.218  0.00  0.00    +0.000 C 
ATOM     21  C26 UNK     0       0.964   0.410  -1.840  0.00  0.00    +0.000 C 
ATOM     22  C27 UNK     0       3.873   1.445  -0.213  0.00  0.00    +0.000 C 
ATOM     23  C28 UNK     0       5.507  -0.851  -1.237  0.00  0.00    +0.000 C 
ATOM     24  C29 UNK     0       5.205   1.639  -1.026  0.00  0.00    +0.000 C 
ATOM     25  C31 UNK     0      -5.635  -0.907   0.633  0.00  0.00    +0.000 C 
ATOM     26  C32 UNK     0       5.509   0.480  -1.976  0.00  0.00    +0.000 C 
ATOM     27  C34 UNK     0       3.943   2.327   1.071  0.00  0.00    +0.000 C 
ATOM     28  C35 UNK     0       5.179   2.953  -1.840  0.00  0.00    +0.000 C 
ENDROOT
BRANCH  17  29
ATOM     29  O1  UNK     0      -6.441   1.805   0.836  0.00  0.00    +0.000 OA
ATOM     30  H77 UNK     0      -6.621   2.775   0.725  0.00  0.00    +0.000 HD
ENDBRANCH  17  29
BRANCH  19  31
ATOM     31  O2  UNK     0      -4.415   3.098   2.368  0.00  0.00    +0.000 OA
ATOM     32  H78 UNK     0      -5.305   3.194   2.799  0.00  0.00    +0.000 HD
ENDBRANCH  19  31
BRANCH  14  33
ATOM     33  C33 UNK     0       4.297  -2.483   0.168  0.00  0.00    +0.000 C 
ATOM     34  O5  UNK     0       3.666  -2.621   1.256  0.00  0.00    +0.000 OA
BRANCH  33  35
ATOM     35  O4  UNK     0       5.115  -3.523  -0.270  0.00  0.00    +0.000 OA
ATOM     36  H83 UNK     0       5.221  -4.367   0.285  0.00  0.00    +0.000 HD
ENDBRANCH  33  35
ENDBRANCH  14  33
BRANCH   9  37
ATOM     37  C30 UNK     0      -5.424   0.305  -1.569  0.00  0.00    +0.000 C 
BRANCH  37  38
ATOM     38  O3  UNK     0      -6.720   0.846  -1.584  0.00  0.00    +0.000 OA
ATOM     39  H82 UNK     0      -7.029   0.816  -2.525  0.00  0.00    +0.000 HD
ENDBRANCH  37  38
ENDBRANCH   9  37
TORSDOF 6
