REMARK  Name = C:\Users\Maximilian\Desktop\Conformers\converted_pdb\conformers_pdb\Asiatic Acid_conf_21.pdb
REMARK  12 active torsions:
REMARK  status: ('A' for Active; 'I' for Inactive)
REMARK    1  A    between atoms: C6_1  and  C20_15
REMARK    2  A    between atoms: C8_3  and  C25_20
REMARK    3  A    between atoms: C9_4  and  C26_21
REMARK    4  A    between atoms: C14_9  and  C31_25
REMARK    5  A    between atoms: C14_9  and  C30_29
REMARK    6  A    between atoms: C19_14  and  C33_36
REMARK    7  A    between atoms: C22_17  and  O1_32
REMARK    8  A    between atoms: C24_19  and  O2_34
REMARK    9  A    between atoms: C27_22  and  C34_27
REMARK   10  A    between atoms: C29_24  and  C35_28
REMARK   11  A    between atoms: C30_29  and  O3_30
REMARK   12  A    between atoms: C33_36  and  O4_38
REMARK                            x       y       z     vdW  Elec       q    Type
REMARK                         _______ _______ _______ _____ _____    ______ ____
ROOT
ATOM      1  C6  UNK     0       0.387  -0.619  -0.508  0.00  0.00    +0.000 C 
ATOM      2  C7  UNK     0       1.049   0.461   0.426  0.00  0.00    +0.000 C 
ATOM      3  C8  UNK     0       2.560   0.849   0.121  0.00  0.00    +0.000 C 
ATOM      4  C9  UNK     0      -1.050  -0.985   0.124  0.00  0.00    +0.000 C 
ATOM      5  C10 UNK     0       3.391  -0.494   0.096  0.00  0.00    +0.000 C 
ATOM      6  C11 UNK     0       1.325  -1.865  -0.577  0.00  0.00    +0.000 C 
ATOM      7  C12 UNK     0      -1.942   0.257  -0.001  0.00  0.00    +0.000 C 
ATOM      8  C13 UNK     0       2.794  -1.529  -0.896  0.00  0.00    +0.000 C 
ATOM      9  C14 UNK     0       4.972  -0.335   0.006  0.00  0.00    +0.000 C 
ATOM     10  C15 UNK     0      -3.307   0.135  -0.739  0.00  0.00    +0.000 C 
ATOM     11  C16 UNK     0       0.081   1.652   0.725  0.00  0.00    +0.000 C 
ATOM     12  C17 UNK     0       3.083   1.776   1.286  0.00  0.00    +0.000 C 
ATOM     13  C18 UNK     0      -1.687  -2.207  -0.609  0.00  0.00    +0.000 C 
ATOM     14  C19 UNK     0      -4.084  -1.198  -0.372  0.00  0.00    +0.000 C 
ATOM     15  C20 UNK     0       0.197  -0.050  -1.965  0.00  0.00    +0.000 C 
ATOM     16  C21 UNK     0      -3.150  -2.452  -0.237  0.00  0.00    +0.000 C 
ATOM     17  C22 UNK     0       5.460   0.966   0.760  0.00  0.00    +0.000 C 
ATOM     18  C23 UNK     0      -1.360   1.463   0.277  0.00  0.00    +0.000 C 
ATOM     19  C24 UNK     0       4.475   1.433   1.853  0.00  0.00    +0.000 C 
ATOM     20  C25 UNK     0       2.692   1.639  -1.217  0.00  0.00    +0.000 C 
ATOM     21  C26 UNK     0      -0.983  -1.346   1.649  0.00  0.00    +0.000 C 
ATOM     22  C27 UNK     0      -4.250   1.406  -0.675  0.00  0.00    +0.000 C 
ATOM     23  C28 UNK     0      -4.825  -0.999   0.985  0.00  0.00    +0.000 C 
ATOM     24  C29 UNK     0      -5.058   1.521   0.649  0.00  0.00    +0.000 C 
ATOM     25  C31 UNK     0       5.467  -0.320  -1.469  0.00  0.00    +0.000 C 
ATOM     26  C32 UNK     0      -5.773   0.206   1.001  0.00  0.00    +0.000 C 
ATOM     27  C34 UNK     0      -5.196   1.509  -1.892  0.00  0.00    +0.000 C 
ATOM     28  C35 UNK     0      -4.212   2.033   1.826  0.00  0.00    +0.000 C 
ENDROOT
BRANCH  17  29
ATOM     29  O1  UNK     0       5.702   2.025  -0.134  0.00  0.00    +0.000 OA
ATOM     30  H77 UNK     0       6.263   2.694   0.341  0.00  0.00    +0.000 HD
ENDBRANCH  17  29
BRANCH  19  31
ATOM     31  O2  UNK     0       4.349   0.458   2.858  0.00  0.00    +0.000 OA
ATOM     32  H78 UNK     0       5.188   0.479   3.389  0.00  0.00    +0.000 HD
ENDBRANCH  19  31
BRANCH  14  33
ATOM     33  C33 UNK     0      -5.076  -1.549  -1.480  0.00  0.00    +0.000 C 
ATOM     34  O5  UNK     0      -6.217  -2.012  -1.207  0.00  0.00    +0.000 OA
BRANCH  33  35
ATOM     35  O4  UNK     0      -4.680  -1.475  -2.813  0.00  0.00    +0.000 OA
ATOM     36  H83 UNK     0      -5.312  -1.739  -3.559  0.00  0.00    +0.000 HD
ENDBRANCH  33  35
ENDBRANCH  14  33
BRANCH   9  37
ATOM     37  C30 UNK     0       5.633  -1.580   0.693  0.00  0.00    +0.000 C 
BRANCH  37  38
ATOM     38  O3  UNK     0       7.037  -1.525   0.638  0.00  0.00    +0.000 OA
ATOM     39  H82 UNK     0       7.319  -2.024  -0.173  0.00  0.00    +0.000 HD
ENDBRANCH  37  38
ENDBRANCH   9  37
TORSDOF 6
