REMARK  Name = C:\Users\Maximilian\Desktop\Conformers\converted_pdb\conformers_pdb\Asiatic Acid_conf_8.pdb
REMARK  12 active torsions:
REMARK  status: ('A' for Active; 'I' for Inactive)
REMARK    1  A    between atoms: C6_1  and  C20_15
REMARK    2  A    between atoms: C8_3  and  C25_20
REMARK    3  A    between atoms: C9_4  and  C26_21
REMARK    4  A    between atoms: C14_9  and  C31_25
REMARK    5  A    between atoms: C14_9  and  C30_29
REMARK    6  A    between atoms: C19_14  and  C33_36
REMARK    7  A    between atoms: C22_17  and  O1_32
REMARK    8  A    between atoms: C24_19  and  O2_34
REMARK    9  A    between atoms: C27_22  and  C34_27
REMARK   10  A    between atoms: C29_24  and  C35_28
REMARK   11  A    between atoms: C30_29  and  O3_30
REMARK   12  A    between atoms: C33_36  and  O4_38
REMARK                            x       y       z     vdW  Elec       q    Type
REMARK                         _______ _______ _______ _____ _____    ______ ____
ROOT
ATOM      1  C6  UNK     0      -0.377   0.234   0.786  0.00  0.00    +0.000 C 
ATOM      2  C7  UNK     0      -1.092   0.309  -0.617  0.00  0.00    +0.000 C 
ATOM      3  C8  UNK     0      -2.632   0.707  -0.617  0.00  0.00    +0.000 C 
ATOM      4  C9  UNK     0       1.062  -0.464   0.564  0.00  0.00    +0.000 C 
ATOM      5  C10 UNK     0      -3.360  -0.274   0.382  0.00  0.00    +0.000 C 
ATOM      6  C11 UNK     0      -1.256  -0.579   1.793  0.00  0.00    +0.000 C 
ATOM      7  C12 UNK     0       1.882   0.425  -0.392  0.00  0.00    +0.000 C 
ATOM      8  C13 UNK     0      -2.745  -0.191   1.802  0.00  0.00    +0.000 C 
ATOM      9  C14 UNK     0      -4.945  -0.277   0.330  0.00  0.00    +0.000 C 
ATOM     10  C15 UNK     0       3.414   0.509  -0.317  0.00  0.00    +0.000 C 
ATOM     11  C16 UNK     0      -0.227   1.053  -1.681  0.00  0.00    +0.000 C 
ATOM     12  C17 UNK     0      -3.199   0.444  -2.050  0.00  0.00    +0.000 C 
ATOM     13  C18 UNK     0       1.779  -0.714   1.945  0.00  0.00    +0.000 C 
ATOM     14  C19 UNK     0       3.882   0.524   1.172  0.00  0.00    +0.000 C 
ATOM     15  C20 UNK     0      -0.196   1.679   1.375  0.00  0.00    +0.000 C 
ATOM     16  C21 UNK     0       3.312  -0.725   1.894  0.00  0.00    +0.000 C 
ATOM     17  C22 UNK     0      -5.399  -0.495  -1.152  0.00  0.00    +0.000 C 
ATOM     18  C23 UNK     0       1.261   1.076  -1.409  0.00  0.00    +0.000 C 
ATOM     19  C24 UNK     0      -4.739   0.488  -2.140  0.00  0.00    +0.000 C 
ATOM     20  C25 UNK     0      -2.844   2.219  -0.262  0.00  0.00    +0.000 C 
ATOM     21  C26 UNK     0       0.975  -1.860  -0.140  0.00  0.00    +0.000 C 
ATOM     22  C27 UNK     0       4.126  -0.598  -1.179  0.00  0.00    +0.000 C 
ATOM     23  C28 UNK     0       5.429   0.545   1.252  0.00  0.00    +0.000 C 
ATOM     24  C29 UNK     0       5.675  -0.478  -1.048  0.00  0.00    +0.000 C 
ATOM     25  C31 UNK     0      -5.569   1.021   0.911  0.00  0.00    +0.000 C 
ATOM     26  C32 UNK     0       6.096  -0.555   0.428  0.00  0.00    +0.000 C 
ATOM     27  C34 UNK     0       3.694  -0.524  -2.659  0.00  0.00    +0.000 C 
ATOM     28  C35 UNK     0       6.428  -1.567  -1.836  0.00  0.00    +0.000 C 
ENDROOT
BRANCH  17  29
ATOM     29  O1  UNK     0      -6.798  -0.371  -1.259  0.00  0.00    +0.000 OA
ATOM     30  H77 UNK     0      -7.155  -1.241  -1.578  0.00  0.00    +0.000 HD
ENDBRANCH  17  29
BRANCH  19  31
ATOM     31  O2  UNK     0      -5.150   0.205  -3.456  0.00  0.00    +0.000 OA
ATOM     32  H78 UNK     0      -4.857  -0.718  -3.677  0.00  0.00    +0.000 HD
ENDBRANCH  19  31
BRANCH  14  33
ATOM     33  C33 UNK     0       3.409   1.785   1.891  0.00  0.00    +0.000 C 
ATOM     34  O5  UNK     0       3.031   2.799   1.245  0.00  0.00    +0.000 OA
BRANCH  33  35
ATOM     35  O4  UNK     0       3.458   1.846   3.282  0.00  0.00    +0.000 OA
ATOM     36  H83 UNK     0       3.165   2.679   3.777  0.00  0.00    +0.000 HD
ENDBRANCH  33  35
ENDBRANCH  14  33
BRANCH   9  37
ATOM     37  C30 UNK     0      -5.525  -1.457   1.175  0.00  0.00    +0.000 C 
BRANCH  37  38
ATOM     38  O3  UNK     0      -4.928  -2.680   0.833  0.00  0.00    +0.000 OA
ATOM     39  H82 UNK     0      -5.346  -3.366   1.416  0.00  0.00    +0.000 HD
ENDBRANCH  37  38
ENDBRANCH   9  37
TORSDOF 6
