REMARK  Name = C:\Users\Maximilian\Desktop\Conformers\converted_pdb\conformers_pdb\Asiatic Acid_conf_9.pdb
REMARK  12 active torsions:
REMARK  status: ('A' for Active; 'I' for Inactive)
REMARK    1  A    between atoms: C6_1  and  C20_15
REMARK    2  A    between atoms: C8_3  and  C25_20
REMARK    3  A    between atoms: C9_4  and  C26_21
REMARK    4  A    between atoms: C14_9  and  C31_25
REMARK    5  A    between atoms: C14_9  and  C30_29
REMARK    6  A    between atoms: C19_14  and  C33_36
REMARK    7  A    between atoms: C22_17  and  O1_32
REMARK    8  A    between atoms: C24_19  and  O2_34
REMARK    9  A    between atoms: C27_22  and  C34_27
REMARK   10  A    between atoms: C29_24  and  C35_28
REMARK   11  A    between atoms: C30_29  and  O3_30
REMARK   12  A    between atoms: C33_36  and  O4_38
REMARK                            x       y       z     vdW  Elec       q    Type
REMARK                         _______ _______ _______ _____ _____    ______ ____
ROOT
ATOM      1  C6  UNK     0       0.378  -0.511   0.616  0.00  0.00    +0.000 C 
ATOM      2  C7  UNK     0       1.081   0.155  -0.627  0.00  0.00    +0.000 C 
ATOM      3  C8  UNK     0       2.649  -0.072  -0.765  0.00  0.00    +0.000 C 
ATOM      4  C9  UNK     0      -1.122   0.078   0.705  0.00  0.00    +0.000 C 
ATOM      5  C10 UNK     0       3.304   0.382   0.597  0.00  0.00    +0.000 C 
ATOM      6  C11 UNK     0       1.190  -0.198   1.916  0.00  0.00    +0.000 C 
ATOM      7  C12 UNK     0      -1.867  -0.326  -0.583  0.00  0.00    +0.000 C 
ATOM      8  C13 UNK     0       2.709  -0.411   1.792  0.00  0.00    +0.000 C 
ATOM      9  C14 UNK     0       4.885   0.542   0.605  0.00  0.00    +0.000 C 
ATOM     10  C15 UNK     0      -3.381  -0.582  -0.604  0.00  0.00    +0.000 C 
ATOM     11  C16 UNK     0       0.271  -0.052  -1.944  0.00  0.00    +0.000 C 
ATOM     12  C17 UNK     0       3.172   0.875  -1.890  0.00  0.00    +0.000 C 
ATOM     13  C18 UNK     0      -1.837  -0.418   2.018  0.00  0.00    +0.000 C 
ATOM     14  C19 UNK     0      -3.820  -1.341   0.687  0.00  0.00    +0.000 C 
ATOM     15  C20 UNK     0       0.339  -2.073   0.439  0.00  0.00    +0.000 C 
ATOM     16  C21 UNK     0      -3.365  -0.532   1.929  0.00  0.00    +0.000 C 
ATOM     17  C22 UNK     0       5.306   1.449  -0.605  0.00  0.00    +0.000 C 
ATOM     18  C23 UNK     0      -1.201  -0.360  -1.765  0.00  0.00    +0.000 C 
ATOM     19  C24 UNK     0       4.707   0.993  -1.952  0.00  0.00    +0.000 C 
ATOM     20  C25 UNK     0       2.991  -1.553  -1.152  0.00  0.00    +0.000 C 
ATOM     21  C26 UNK     0      -1.177   1.642   0.743  0.00  0.00    +0.000 C 
ATOM     22  C27 UNK     0      -4.215   0.726  -0.865  0.00  0.00    +0.000 C 
ATOM     23  C28 UNK     0      -5.355  -1.545   0.700  0.00  0.00    +0.000 C 
ATOM     24  C29 UNK     0      -5.742   0.413  -0.855  0.00  0.00    +0.000 C 
ATOM     25  C31 UNK     0       5.623  -0.822   0.558  0.00  0.00    +0.000 C 
ATOM     26  C32 UNK     0      -6.142  -0.257   0.469  0.00  0.00    +0.000 C 
ATOM     27  C34 UNK     0      -3.804   1.402  -2.191  0.00  0.00    +0.000 C 
ATOM     28  C35 UNK     0      -6.613   1.667  -1.058  0.00  0.00    +0.000 C 
ENDROOT
BRANCH  17  29
ATOM     29  O1  UNK     0       6.708   1.484  -0.728  0.00  0.00    +0.000 OA
ATOM     30  H77 UNK     0       6.946   2.353  -1.146  0.00  0.00    +0.000 HD
ENDBRANCH  17  29
BRANCH  19  31
ATOM     31  O2  UNK     0       5.075   1.882  -2.979  0.00  0.00    +0.000 OA
ATOM     32  H78 UNK     0       4.712   2.778  -2.752  0.00  0.00    +0.000 HD
ENDBRANCH  19  31
BRANCH  14  33
ATOM     33  C33 UNK     0      -3.212  -2.741   0.742  0.00  0.00    +0.000 C 
ATOM     34  O5  UNK     0      -2.761  -3.295  -0.298  0.00  0.00    +0.000 OA
BRANCH  33  35
ATOM     35  O4  UNK     0      -3.225  -3.455   1.939  0.00  0.00    +0.000 OA
ATOM     36  H83 UNK     0      -2.847  -4.393   1.988  0.00  0.00    +0.000 HD
ENDBRANCH  33  35
ENDBRANCH  14  33
BRANCH   9  37
ATOM     37  C30 UNK     0       5.315   1.266   1.931  0.00  0.00    +0.000 C 
BRANCH  37  38
ATOM     38  O3  UNK     0       6.645   1.718   1.890  0.00  0.00    +0.000 OA
ATOM     39  H82 UNK     0       7.214   1.004   2.279  0.00  0.00    +0.000 HD
ENDBRANCH  37  38
ENDBRANCH   9  37
TORSDOF 6
