REMARK  Name = C:\Users\Maximilian\Desktop\Conformers\converted_pdb\conformers_pdb\Asiatic Acid_conf_20.pdb
REMARK  12 active torsions:
REMARK  status: ('A' for Active; 'I' for Inactive)
REMARK    1  A    between atoms: C6_1  and  C20_15
REMARK    2  A    between atoms: C8_3  and  C25_20
REMARK    3  A    between atoms: C9_4  and  C26_21
REMARK    4  A    between atoms: C14_9  and  C31_25
REMARK    5  A    between atoms: C14_9  and  C30_29
REMARK    6  A    between atoms: C19_14  and  C33_36
REMARK    7  A    between atoms: C22_17  and  O1_32
REMARK    8  A    between atoms: C24_19  and  O2_34
REMARK    9  A    between atoms: C27_22  and  C34_27
REMARK   10  A    between atoms: C29_24  and  C35_28
REMARK   11  A    between atoms: C30_29  and  O3_30
REMARK   12  A    between atoms: C33_36  and  O4_38
REMARK                            x       y       z     vdW  Elec       q    Type
REMARK                         _______ _______ _______ _____ _____    ______ ____
ROOT
ATOM      1  C6  UNK     0      -0.468   0.399  -0.553  0.00  0.00    +0.000 C 
ATOM      2  C7  UNK     0      -1.168  -0.194   0.726  0.00  0.00    +0.000 C 
ATOM      3  C8  UNK     0      -2.639  -0.767   0.542  0.00  0.00    +0.000 C 
ATOM      4  C9  UNK     0       0.910   1.085  -0.081  0.00  0.00    +0.000 C 
ATOM      5  C10 UNK     0      -3.507   0.373  -0.122  0.00  0.00    +0.000 C 
ATOM      6  C11 UNK     0      -1.432   1.435  -1.210  0.00  0.00    +0.000 C 
ATOM      7  C12 UNK     0       1.836  -0.032   0.410  0.00  0.00    +0.000 C 
ATOM      8  C13 UNK     0      -2.864   0.908  -1.431  0.00  0.00    +0.000 C 
ATOM      9  C14 UNK     0      -5.069   0.083  -0.227  0.00  0.00    +0.000 C 
ATOM     10  C15 UNK     0       3.245  -0.202  -0.222  0.00  0.00    +0.000 C 
ATOM     11  C16 UNK     0      -0.192  -1.069   1.580  0.00  0.00    +0.000 C 
ATOM     12  C17 UNK     0      -3.222  -1.113   1.967  0.00  0.00    +0.000 C 
ATOM     13  C18 UNK     0       1.568   1.882  -1.251  0.00  0.00    +0.000 C 
ATOM     14  C19 UNK     0       3.968   1.172  -0.555  0.00  0.00    +0.000 C 
ATOM     15  C20 UNK     0      -0.161  -0.743  -1.595  0.00  0.00    +0.000 C 
ATOM     16  C21 UNK     0       2.994   2.334  -0.946  0.00  0.00    +0.000 C 
ATOM     17  C22 UNK     0      -5.576  -0.773   1.005  0.00  0.00    +0.000 C 
ATOM     18  C23 UNK     0       1.272  -1.014   1.175  0.00  0.00    +0.000 C 
ATOM     19  C24 UNK     0      -4.667  -0.647   2.241  0.00  0.00    +0.000 C 
ATOM     20  C25 UNK     0      -2.646  -2.074  -0.309  0.00  0.00    +0.000 C 
ATOM     21  C26 UNK     0       0.737   2.082   1.117  0.00  0.00    +0.000 C 
ATOM     22  C27 UNK     0       4.176  -1.207   0.578  0.00  0.00    +0.000 C 
ATOM     23  C28 UNK     0       4.764   1.612   0.704  0.00  0.00    +0.000 C 
ATOM     24  C29 UNK     0       5.680  -0.808   0.594  0.00  0.00    +0.000 C 
ATOM     25  C31 UNK     0      -5.439  -0.617  -1.567  0.00  0.00    +0.000 C 
ATOM     26  C32 UNK     0       5.866   0.626   1.135  0.00  0.00    +0.000 C 
ATOM     27  C34 UNK     0       4.004  -2.642   0.027  0.00  0.00    +0.000 C 
ATOM     28  C35 UNK     0       6.540  -1.777   1.427  0.00  0.00    +0.000 C 
ENDROOT
BRANCH  17  29
ATOM     29  O1  UNK     0      -5.713  -2.138   0.688  0.00  0.00    +0.000 OA
ATOM     30  H77 UNK     0      -6.644  -2.279   0.369  0.00  0.00    +0.000 HD
ENDBRANCH  17  29
BRANCH  19  31
ATOM     31  O2  UNK     0      -4.654   0.676   2.716  0.00  0.00    +0.000 OA
ATOM     32  H78 UNK     0      -5.529   0.834   3.157  0.00  0.00    +0.000 HD
ENDBRANCH  19  31
BRANCH  14  33
ATOM     33  C33 UNK     0       4.915   1.006  -1.745  0.00  0.00    +0.000 C 
ATOM     34  O5  UNK     0       4.558   0.343  -2.758  0.00  0.00    +0.000 OA
BRANCH  33  35
ATOM     35  O4  UNK     0       6.142   1.667  -1.770  0.00  0.00    +0.000 OA
ATOM     36  H83 UNK     0       6.762   1.587  -2.568  0.00  0.00    +0.000 HD
ENDBRANCH  33  35
ENDBRANCH  14  33
BRANCH   9  37
ATOM     37  C30 UNK     0      -5.828   1.452  -0.211  0.00  0.00    +0.000 C 
BRANCH  37  38
ATOM     38  O3  UNK     0      -7.213   1.268  -0.350  0.00  0.00    +0.000 OA
ATOM     39  H82 UNK     0      -7.629   2.157  -0.209  0.00  0.00    +0.000 HD
ENDBRANCH  37  38
ENDBRANCH   9  37
TORSDOF 6
