REMARK  Name = C:\Users\Maximilian\Desktop\Conformers\converted_pdb\conformers_pdb\Asiatic Acid_conf_53.pdb
REMARK  12 active torsions:
REMARK  status: ('A' for Active; 'I' for Inactive)
REMARK    1  A    between atoms: C6_1  and  C20_15
REMARK    2  A    between atoms: C8_3  and  C25_20
REMARK    3  A    between atoms: C9_4  and  C26_21
REMARK    4  A    between atoms: C14_9  and  C31_25
REMARK    5  A    between atoms: C14_9  and  C30_29
REMARK    6  A    between atoms: C19_14  and  C33_36
REMARK    7  A    between atoms: C22_17  and  O1_32
REMARK    8  A    between atoms: C24_19  and  O2_34
REMARK    9  A    between atoms: C27_22  and  C34_27
REMARK   10  A    between atoms: C29_24  and  C35_28
REMARK   11  A    between atoms: C30_29  and  O3_30
REMARK   12  A    between atoms: C33_36  and  O4_38
REMARK                            x       y       z     vdW  Elec       q    Type
REMARK                         _______ _______ _______ _____ _____    ______ ____
ROOT
ATOM      1  C6  UNK     0      -0.384   0.200  -1.028  0.00  0.00    +0.000 C 
ATOM      2  C7  UNK     0      -1.127  -0.550   0.152  0.00  0.00    +0.000 C 
ATOM      3  C8  UNK     0      -2.724  -0.679   0.102  0.00  0.00    +0.000 C 
ATOM      4  C9  UNK     0       1.119   0.573  -0.546  0.00  0.00    +0.000 C 
ATOM      5  C10 UNK     0      -3.310   0.726  -0.295  0.00  0.00    +0.000 C 
ATOM      6  C11 UNK     0      -1.178   1.487  -1.420  0.00  0.00    +0.000 C 
ATOM      7  C12 UNK     0       1.814  -0.658   0.086  0.00  0.00    +0.000 C 
ATOM      8  C13 UNK     0      -2.677   1.249  -1.611  0.00  0.00    +0.000 C 
ATOM      9  C14 UNK     0      -4.891   0.885  -0.213  0.00  0.00    +0.000 C 
ATOM     10  C15 UNK     0       3.352  -0.755   0.200  0.00  0.00    +0.000 C 
ATOM     11  C16 UNK     0      -0.389  -1.865   0.477  0.00  0.00    +0.000 C 
ATOM     12  C17 UNK     0      -3.236  -1.070   1.546  0.00  0.00    +0.000 C 
ATOM     13  C18 UNK     0       1.975   1.087  -1.754  0.00  0.00    +0.000 C 
ATOM     14  C19 UNK     0       4.099  -0.165  -1.054  0.00  0.00    +0.000 C 
ATOM     15  C20 UNK     0      -0.311  -0.722  -2.290  0.00  0.00    +0.000 C 
ATOM     16  C21 UNK     0       3.475   1.197  -1.453  0.00  0.00    +0.000 C 
ATOM     17  C22 UNK     0      -5.491   0.024   0.970  0.00  0.00    +0.000 C 
ATOM     18  C23 UNK     0       1.095  -1.680   0.620  0.00  0.00    +0.000 C 
ATOM     19  C24 UNK     0      -4.462  -0.289   2.073  0.00  0.00    +0.000 C 
ATOM     20  C25 UNK     0      -3.210  -1.798  -0.876  0.00  0.00    +0.000 C 
ATOM     21  C26 UNK     0       1.127   1.714   0.527  0.00  0.00    +0.000 C 
ATOM     22  C27 UNK     0       3.962  -0.209   1.535  0.00  0.00    +0.000 C 
ATOM     23  C28 UNK     0       5.617   0.074  -0.734  0.00  0.00    +0.000 C 
ATOM     24  C29 UNK     0       5.448  -0.685   1.690  0.00  0.00    +0.000 C 
ATOM     25  C31 UNK     0      -5.579   0.517  -1.558  0.00  0.00    +0.000 C 
ATOM     26  C32 UNK     0       6.148  -0.899   0.322  0.00  0.00    +0.000 C 
ATOM     27  C34 UNK     0       3.142  -0.607   2.777  0.00  0.00    +0.000 C 
ATOM     28  C35 UNK     0       6.261   0.296   2.556  0.00  0.00    +0.000 C 
ENDROOT
BRANCH  17  29
ATOM     29  O1  UNK     0      -6.054  -1.180   0.504  0.00  0.00    +0.000 OA
ATOM     30  H77 UNK     0      -6.731  -1.469   1.169  0.00  0.00    +0.000 HD
ENDBRANCH  17  29
BRANCH  19  31
ATOM     31  O2  UNK     0      -4.055   0.905   2.694  0.00  0.00    +0.000 OA
ATOM     32  H78 UNK     0      -3.689   0.660   3.584  0.00  0.00    +0.000 HD
ENDBRANCH  19  31
BRANCH  14  33
ATOM     33  C33 UNK     0       3.995  -1.124  -2.240  0.00  0.00    +0.000 C 
ATOM     34  O5  UNK     0       4.617  -0.875  -3.311  0.00  0.00    +0.000 OA
BRANCH  33  35
ATOM     35  O4  UNK     0       3.182  -2.255  -2.182  0.00  0.00    +0.000 OA
ATOM     36  H83 UNK     0       3.089  -2.870  -2.981  0.00  0.00    +0.000 HD
ENDBRANCH  33  35
ENDBRANCH  14  33
BRANCH   9  37
ATOM     37  C30 UNK     0      -5.217   2.394   0.066  0.00  0.00    +0.000 C 
BRANCH  37  38
ATOM     38  O3  UNK     0      -6.603   2.625   0.131  0.00  0.00    +0.000 OA
ATOM     39  H82 UNK     0      -6.892   2.945  -0.765  0.00  0.00    +0.000 HD
ENDBRANCH  37  38
ENDBRANCH   9  37
TORSDOF 6
