REMARK  Name = C:\Users\Maximilian\Desktop\Conformers\converted_pdb\conformers_pdb\Asiatic Acid_conf_41.pdb
REMARK  12 active torsions:
REMARK  status: ('A' for Active; 'I' for Inactive)
REMARK    1  A    between atoms: C6_1  and  C20_15
REMARK    2  A    between atoms: C8_3  and  C25_20
REMARK    3  A    between atoms: C9_4  and  C26_21
REMARK    4  A    between atoms: C14_9  and  C31_25
REMARK    5  A    between atoms: C14_9  and  C30_29
REMARK    6  A    between atoms: C19_14  and  C33_36
REMARK    7  A    between atoms: C22_17  and  O1_32
REMARK    8  A    between atoms: C24_19  and  O2_34
REMARK    9  A    between atoms: C27_22  and  C34_27
REMARK   10  A    between atoms: C29_24  and  C35_28
REMARK   11  A    between atoms: C30_29  and  O3_30
REMARK   12  A    between atoms: C33_36  and  O4_38
REMARK                            x       y       z     vdW  Elec       q    Type
REMARK                         _______ _______ _______ _____ _____    ______ ____
ROOT
ATOM      1  C6  UNK     0      -0.336  -0.947  -0.441  0.00  0.00    +0.000 C 
ATOM      2  C7  UNK     0      -1.129  -0.068   0.612  0.00  0.00    +0.000 C 
ATOM      3  C8  UNK     0      -2.713  -0.282   0.720  0.00  0.00    +0.000 C 
ATOM      4  C9  UNK     0       1.148  -0.321  -0.646  0.00  0.00    +0.000 C 
ATOM      5  C10 UNK     0      -3.289  -0.225  -0.745  0.00  0.00    +0.000 C 
ATOM      6  C11 UNK     0      -1.118  -0.977  -1.796  0.00  0.00    +0.000 C 
ATOM      7  C12 UNK     0       1.825  -0.042   0.717  0.00  0.00    +0.000 C 
ATOM      8  C13 UNK     0      -2.613  -1.285  -1.651  0.00  0.00    +0.000 C 
ATOM      9  C14 UNK     0      -4.864  -0.120  -0.882  0.00  0.00    +0.000 C 
ATOM     10  C15 UNK     0       3.359   0.102   0.853  0.00  0.00    +0.000 C 
ATOM     11  C16 UNK     0      -0.388  -0.035   1.967  0.00  0.00    +0.000 C 
ATOM     12  C17 UNK     0      -3.323   0.922   1.513  0.00  0.00    +0.000 C 
ATOM     13  C18 UNK     0       2.055  -1.294  -1.476  0.00  0.00    +0.000 C 
ATOM     14  C19 UNK     0       4.158  -0.890  -0.074  0.00  0.00    +0.000 C 
ATOM     15  C20 UNK     0      -0.225  -2.421   0.069  0.00  0.00    +0.000 C 
ATOM     16  C21 UNK     0       3.538  -0.904  -1.494  0.00  0.00    +0.000 C 
ATOM     17  C22 UNK     0      -5.364   1.077  -0.006  0.00  0.00    +0.000 C 
ATOM     18  C23 UNK     0       1.094   0.157   1.840  0.00  0.00    +0.000 C 
ATOM     19  C24 UNK     0      -4.862   1.027   1.448  0.00  0.00    +0.000 C 
ATOM     20  C25 UNK     0      -3.093  -1.603   1.476  0.00  0.00    +0.000 C 
ATOM     21  C26 UNK     0       1.107   1.032  -1.431  0.00  0.00    +0.000 C 
ATOM     22  C27 UNK     0       3.908   1.564   0.726  0.00  0.00    +0.000 C 
ATOM     23  C28 UNK     0       5.657  -0.444  -0.202  0.00  0.00    +0.000 C 
ATOM     24  C29 UNK     0       5.387   1.635   1.241  0.00  0.00    +0.000 C 
ATOM     25  C31 UNK     0      -5.590  -1.434  -0.489  0.00  0.00    +0.000 C 
ATOM     26  C32 UNK     0       6.150   0.299   1.043  0.00  0.00    +0.000 C 
ATOM     27  C34 UNK     0       3.038   2.600   1.462  0.00  0.00    +0.000 C 
ATOM     28  C35 UNK     0       6.157   2.790   0.573  0.00  0.00    +0.000 C 
ENDROOT
BRANCH  17  29
ATOM     29  O1  UNK     0      -6.771   1.125  -0.010  0.00  0.00    +0.000 OA
ATOM     30  H77 UNK     0      -7.036   2.077   0.082  0.00  0.00    +0.000 HD
ENDBRANCH  17  29
BRANCH  19  31
ATOM     31  O2  UNK     0      -5.266   2.203   2.103  0.00  0.00    +0.000 OA
ATOM     32  H78 UNK     0      -5.176   2.037   3.079  0.00  0.00    +0.000 HD
ENDBRANCH  19  31
BRANCH  14  33
ATOM     33  C33 UNK     0       4.115  -2.306   0.500  0.00  0.00    +0.000 C 
ATOM     34  O5  UNK     0       4.809  -3.222  -0.022  0.00  0.00    +0.000 OA
BRANCH  33  35
ATOM     35  O4  UNK     0       3.263  -2.626   1.557  0.00  0.00    +0.000 OA
ATOM     36  H83 UNK     0       3.198  -3.574   1.904  0.00  0.00    +0.000 HD
ENDBRANCH  33  35
ENDBRANCH  14  33
BRANCH   9  37
ATOM     37  C30 UNK     0      -5.275   0.178  -2.363  0.00  0.00    +0.000 C 
BRANCH  37  38
ATOM     38  O3  UNK     0      -4.531   1.232  -2.920  0.00  0.00    +0.000 OA
ATOM     39  H82 UNK     0      -5.075   2.056  -2.828  0.00  0.00    +0.000 HD
ENDBRANCH  37  38
ENDBRANCH   9  37
TORSDOF 6
