REMARK  Name = C:\Users\Maximilian\Desktop\Conformers\converted_pdb\conformers_pdb\Asiatic Acid_conf_15.pdb
REMARK  12 active torsions:
REMARK  status: ('A' for Active; 'I' for Inactive)
REMARK    1  A    between atoms: C6_1  and  C20_15
REMARK    2  A    between atoms: C8_3  and  C25_20
REMARK    3  A    between atoms: C9_4  and  C26_21
REMARK    4  A    between atoms: C14_9  and  C31_25
REMARK    5  A    between atoms: C14_9  and  C30_29
REMARK    6  A    between atoms: C19_14  and  C33_36
REMARK    7  A    between atoms: C22_17  and  O1_32
REMARK    8  A    between atoms: C24_19  and  O2_34
REMARK    9  A    between atoms: C27_22  and  C34_27
REMARK   10  A    between atoms: C29_24  and  C35_28
REMARK   11  A    between atoms: C30_29  and  O3_30
REMARK   12  A    between atoms: C33_36  and  O4_38
REMARK                            x       y       z     vdW  Elec       q    Type
REMARK                         _______ _______ _______ _____ _____    ______ ____
ROOT
ATOM      1  C6  UNK     0       0.367  -0.137   0.807  0.00  0.00    +0.000 C 
ATOM      2  C7  UNK     0       1.185  -0.165  -0.547  0.00  0.00    +0.000 C 
ATOM      3  C8  UNK     0       2.733  -0.568  -0.468  0.00  0.00    +0.000 C 
ATOM      4  C9  UNK     0      -1.087   0.532   0.538  0.00  0.00    +0.000 C 
ATOM      5  C10 UNK     0       3.415   0.315   0.641  0.00  0.00    +0.000 C 
ATOM      6  C11 UNK     0       1.199   0.681   1.850  0.00  0.00    +0.000 C 
ATOM      7  C12 UNK     0      -1.788  -0.168  -0.641  0.00  0.00    +0.000 C 
ATOM      8  C13 UNK     0       2.652   0.213   1.988  0.00  0.00    +0.000 C 
ATOM      9  C14 UNK     0       5.001   0.204   0.778  0.00  0.00    +0.000 C 
ATOM     10  C15 UNK     0      -3.324  -0.299  -0.690  0.00  0.00    +0.000 C 
ATOM     11  C16 UNK     0       0.411  -0.856  -1.699  0.00  0.00    +0.000 C 
ATOM     12  C17 UNK     0       3.397  -0.184  -1.830  0.00  0.00    +0.000 C 
ATOM     13  C18 UNK     0      -2.043   0.482   1.787  0.00  0.00    +0.000 C 
ATOM     14  C19 UNK     0      -3.894  -0.950   0.637  0.00  0.00    +0.000 C 
ATOM     15  C20 UNK     0       0.181  -1.571   1.379  0.00  0.00    +0.000 C 
ATOM     16  C21 UNK     0      -2.955  -0.757   1.868  0.00  0.00    +0.000 C 
ATOM     17  C22 UNK     0       5.673  -0.431  -0.503  0.00  0.00    +0.000 C 
ATOM     18  C23 UNK     0      -1.080  -0.673  -1.675  0.00  0.00    +0.000 C 
ATOM     19  C24 UNK     0       4.952  -0.150  -1.852  0.00  0.00    +0.000 C 
ATOM     20  C25 UNK     0       2.936  -2.103  -0.237  0.00  0.00    +0.000 C 
ATOM     21  C26 UNK     0      -0.954   2.046   0.160  0.00  0.00    +0.000 C 
ATOM     22  C27 UNK     0      -4.049   1.023  -1.110  0.00  0.00    +0.000 C 
ATOM     23  C28 UNK     0      -5.287  -0.341   0.982  0.00  0.00    +0.000 C 
ATOM     24  C29 UNK     0      -5.594   0.814  -1.263  0.00  0.00    +0.000 C 
ATOM     25  C31 UNK     0       5.443  -0.627   2.024  0.00  0.00    +0.000 C 
ATOM     26  C32 UNK     0      -6.162  -0.227  -0.267  0.00  0.00    +0.000 C 
ATOM     27  C34 UNK     0      -3.464   1.587  -2.424  0.00  0.00    +0.000 C 
ATOM     28  C35 UNK     0      -6.353   2.146  -1.114  0.00  0.00    +0.000 C 
ENDROOT
BRANCH  17  29
ATOM     29  O1  UNK     0       5.833  -1.823  -0.345  0.00  0.00    +0.000 OA
ATOM     30  H77 UNK     0       6.564  -2.113  -0.951  0.00  0.00    +0.000 HD
ENDBRANCH  17  29
BRANCH  19  31
ATOM     31  O2  UNK     0       5.431   1.038  -2.435  0.00  0.00    +0.000 OA
ATOM     32  H78 UNK     0       5.002   1.804  -1.977  0.00  0.00    +0.000 HD
ENDBRANCH  19  31
BRANCH  14  33
ATOM     33  C33 UNK     0      -4.038  -2.459   0.425  0.00  0.00    +0.000 C 
ATOM     34  O5  UNK     0      -3.123  -3.103  -0.160  0.00  0.00    +0.000 OA
BRANCH  33  35
ATOM     35  O4  UNK     0      -5.129  -3.158   0.939  0.00  0.00    +0.000 OA
ATOM     36  H83 UNK     0      -5.208  -4.160   0.820  0.00  0.00    +0.000 HD
ENDBRANCH  33  35
ENDBRANCH  14  33
BRANCH   9  37
ATOM     37  C30 UNK     0       5.608   1.635   0.980  0.00  0.00    +0.000 C 
BRANCH  37  38
ATOM     38  O3  UNK     0       5.127   2.252   2.148  0.00  0.00    +0.000 OA
ATOM     39  H82 UNK     0       4.372   2.839   1.882  0.00  0.00    +0.000 HD
ENDBRANCH  37  38
ENDBRANCH   9  37
TORSDOF 6
