REMARK  Name = C:\Users\Maximilian\Desktop\Conformers\converted_pdb\conformers_pdb\Asiatic Acid_conf_19.pdb
REMARK  12 active torsions:
REMARK  status: ('A' for Active; 'I' for Inactive)
REMARK    1  A    between atoms: C6_1  and  C20_15
REMARK    2  A    between atoms: C8_3  and  C25_20
REMARK    3  A    between atoms: C9_4  and  C26_21
REMARK    4  A    between atoms: C14_9  and  C31_25
REMARK    5  A    between atoms: C14_9  and  C30_29
REMARK    6  A    between atoms: C19_14  and  C33_36
REMARK    7  A    between atoms: C22_17  and  O1_32
REMARK    8  A    between atoms: C24_19  and  O2_34
REMARK    9  A    between atoms: C27_22  and  C34_27
REMARK   10  A    between atoms: C29_24  and  C35_28
REMARK   11  A    between atoms: C30_29  and  O3_30
REMARK   12  A    between atoms: C33_36  and  O4_38
REMARK                            x       y       z     vdW  Elec       q    Type
REMARK                         _______ _______ _______ _____ _____    ______ ____
ROOT
ATOM      1  C6  UNK     0      -0.410   0.366  -0.698  0.00  0.00    +0.000 C 
ATOM      2  C7  UNK     0      -1.084  -0.576   0.384  0.00  0.00    +0.000 C 
ATOM      3  C8  UNK     0      -2.636  -0.919   0.200  0.00  0.00    +0.000 C 
ATOM      4  C9  UNK     0       1.062   0.806  -0.172  0.00  0.00    +0.000 C 
ATOM      5  C10 UNK     0      -3.399   0.450   0.020  0.00  0.00    +0.000 C 
ATOM      6  C11 UNK     0      -1.342   1.605  -0.924  0.00  0.00    +0.000 C 
ATOM      7  C12 UNK     0       1.881  -0.436   0.229  0.00  0.00    +0.000 C 
ATOM      8  C13 UNK     0      -2.816   1.252  -1.175  0.00  0.00    +0.000 C 
ATOM      9  C14 UNK     0      -4.984   0.397   0.106  0.00  0.00    +0.000 C 
ATOM     10  C15 UNK     0       3.415  -0.462   0.073  0.00  0.00    +0.000 C 
ATOM     11  C16 UNK     0      -0.197  -1.799   0.735  0.00  0.00    +0.000 C 
ATOM     12  C17 UNK     0      -3.148  -1.579   1.521  0.00  0.00    +0.000 C 
ATOM     13  C18 UNK     0       1.888   1.626  -1.231  0.00  0.00    +0.000 C 
ATOM     14  C19 UNK     0       3.856  -0.077  -1.399  0.00  0.00    +0.000 C 
ATOM     15  C20 UNK     0      -0.274  -0.364  -2.064  0.00  0.00    +0.000 C 
ATOM     16  C21 UNK     0       2.796   0.787  -2.151  0.00  0.00    +0.000 C 
ATOM     17  C22 UNK     0      -5.377  -0.348   1.433  0.00  0.00    +0.000 C 
ATOM     18  C23 UNK     0       1.282  -1.534   0.742  0.00  0.00    +0.000 C 
ATOM     19  C24 UNK     0      -4.680  -1.711   1.620  0.00  0.00    +0.000 C 
ATOM     20  C25 UNK     0      -2.888  -1.919  -0.981  0.00  0.00    +0.000 C 
ATOM     21  C26 UNK     0       0.963   1.720   1.096  0.00  0.00    +0.000 C 
ATOM     22  C27 UNK     0       4.170   0.334   1.190  0.00  0.00    +0.000 C 
ATOM     23  C28 UNK     0       5.201   0.711  -1.372  0.00  0.00    +0.000 C 
ATOM     24  C29 UNK     0       5.723   0.183   1.062  0.00  0.00    +0.000 C 
ATOM     25  C31 UNK     0      -5.627  -0.276  -1.136  0.00  0.00    +0.000 C 
ATOM     26  C32 UNK     0       6.198   0.067  -0.407  0.00  0.00    +0.000 C 
ATOM     27  C34 UNK     0       3.713  -0.111   2.597  0.00  0.00    +0.000 C 
ATOM     28  C35 UNK     0       6.454   1.349   1.755  0.00  0.00    +0.000 C 
ENDROOT
BRANCH  17  29
ATOM     29  O1  UNK     0      -6.772  -0.497   1.568  0.00  0.00    +0.000 OA
ATOM     30  H77 UNK     0      -7.071  -1.208   0.943  0.00  0.00    +0.000 HD
ENDBRANCH  17  29
BRANCH  19  31
ATOM     31  O2  UNK     0      -5.017  -2.215   2.887  0.00  0.00    +0.000 OA
ATOM     32  H78 UNK     0      -4.792  -3.183   2.884  0.00  0.00    +0.000 HD
ENDBRANCH  19  31
BRANCH  14  33
ATOM     33  C33 UNK     0       4.034  -1.362  -2.211  0.00  0.00    +0.000 C 
ATOM     34  O5  UNK     0       3.161  -2.271  -2.146  0.00  0.00    +0.000 OA
BRANCH  33  35
ATOM     35  O4  UNK     0       5.112  -1.524  -3.079  0.00  0.00    +0.000 OA
ATOM     36  H83 UNK     0       5.215  -2.368  -3.631  0.00  0.00    +0.000 HD
ENDBRANCH  33  35
ENDBRANCH  14  33
BRANCH   9  37
ATOM     37  C30 UNK     0      -5.542   1.860   0.185  0.00  0.00    +0.000 C 
BRANCH  37  38
ATOM     38  O3  UNK     0      -6.912   1.879   0.486  0.00  0.00    +0.000 OA
ATOM     39  H82 UNK     0      -7.171   2.836   0.547  0.00  0.00    +0.000 HD
ENDBRANCH  37  38
ENDBRANCH   9  37
TORSDOF 6
