REMARK  Name = C:\Users\Maximilian\Desktop\Conformers\converted_pdb\conformers_pdb\Asiatic Acid_conf_43.pdb
REMARK  12 active torsions:
REMARK  status: ('A' for Active; 'I' for Inactive)
REMARK    1  A    between atoms: C6_1  and  C20_15
REMARK    2  A    between atoms: C8_3  and  C25_20
REMARK    3  A    between atoms: C9_4  and  C26_21
REMARK    4  A    between atoms: C14_9  and  C31_25
REMARK    5  A    between atoms: C14_9  and  C30_29
REMARK    6  A    between atoms: C19_14  and  C33_36
REMARK    7  A    between atoms: C22_17  and  O1_32
REMARK    8  A    between atoms: C24_19  and  O2_34
REMARK    9  A    between atoms: C27_22  and  C34_27
REMARK   10  A    between atoms: C29_24  and  C35_28
REMARK   11  A    between atoms: C30_29  and  O3_30
REMARK   12  A    between atoms: C33_36  and  O4_38
REMARK                            x       y       z     vdW  Elec       q    Type
REMARK                         _______ _______ _______ _____ _____    ______ ____
ROOT
ATOM      1  C6  UNK     0      -0.201  -0.271  -1.039  0.00  0.00    +0.000 C 
ATOM      2  C7  UNK     0      -1.190  -0.224   0.196  0.00  0.00    +0.000 C 
ATOM      3  C8  UNK     0      -2.764  -0.248  -0.107  0.00  0.00    +0.000 C 
ATOM      4  C9  UNK     0       1.289   0.138  -0.542  0.00  0.00    +0.000 C 
ATOM      5  C10 UNK     0      -3.045   0.845  -1.206  0.00  0.00    +0.000 C 
ATOM      6  C11 UNK     0      -0.701   0.709  -2.149  0.00  0.00    +0.000 C 
ATOM      7  C12 UNK     0       1.690  -0.670   0.713  0.00  0.00    +0.000 C 
ATOM      8  C13 UNK     0      -2.192   0.576  -2.475  0.00  0.00    +0.000 C 
ATOM      9  C14 UNK     0      -4.562   1.228  -1.468  0.00  0.00    +0.000 C 
ATOM     10  C15 UNK     0       3.169  -0.869   1.120  0.00  0.00    +0.000 C 
ATOM     11  C16 UNK     0      -0.726  -1.199   1.304  0.00  0.00    +0.000 C 
ATOM     12  C17 UNK     0      -3.519   0.185   1.192  0.00  0.00    +0.000 C 
ATOM     13  C18 UNK     0       2.340  -0.111  -1.677  0.00  0.00    +0.000 C 
ATOM     14  C19 UNK     0       4.125  -1.072  -0.115  0.00  0.00    +0.000 C 
ATOM     15  C20 UNK     0      -0.179  -1.709  -1.654  0.00  0.00    +0.000 C 
ATOM     16  C21 UNK     0       3.798  -0.028  -1.212  0.00  0.00    +0.000 C 
ATOM     17  C22 UNK     0      -5.237   1.568  -0.092  0.00  0.00    +0.000 C 
ATOM     18  C23 UNK     0       0.754  -1.176   1.554  0.00  0.00    +0.000 C 
ATOM     19  C24 UNK     0      -5.015   0.499   0.992  0.00  0.00    +0.000 C 
ATOM     20  C25 UNK     0      -3.280  -1.672  -0.517  0.00  0.00    +0.000 C 
ATOM     21  C26 UNK     0       1.390   1.654  -0.162  0.00  0.00    +0.000 C 
ATOM     22  C27 UNK     0       3.743   0.202   2.109  0.00  0.00    +0.000 C 
ATOM     23  C28 UNK     0       5.625  -0.883   0.302  0.00  0.00    +0.000 C 
ATOM     24  C29 UNK     0       5.100  -0.290   2.720  0.00  0.00    +0.000 C 
ATOM     25  C31 UNK     0      -5.339   0.108  -2.209  0.00  0.00    +0.000 C 
ATOM     26  C32 UNK     0       5.870  -1.243   1.769  0.00  0.00    +0.000 C 
ATOM     27  C34 UNK     0       2.757   0.572   3.233  0.00  0.00    +0.000 C 
ATOM     28  C35 UNK     0       5.994   0.898   3.121  0.00  0.00    +0.000 C 
ENDROOT
BRANCH  17  29
ATOM     29  O1  UNK     0      -6.623   1.754  -0.260  0.00  0.00    +0.000 OA
ATOM     30  H77 UNK     0      -6.924   2.384   0.446  0.00  0.00    +0.000 HD
ENDBRANCH  17  29
BRANCH  19  31
ATOM     31  O2  UNK     0      -5.544   0.974   2.205  0.00  0.00    +0.000 OA
ATOM     32  H78 UNK     0      -5.640   0.189   2.807  0.00  0.00    +0.000 HD
ENDBRANCH  19  31
BRANCH  14  33
ATOM     33  C33 UNK     0       3.957  -2.476  -0.697  0.00  0.00    +0.000 C 
ATOM     34  O5  UNK     0       4.681  -2.849  -1.661  0.00  0.00    +0.000 OA
BRANCH  33  35
ATOM     35  O4  UNK     0       2.979  -3.344  -0.215  0.00  0.00    +0.000 OA
ATOM     36  H83 UNK     0       2.855  -4.265  -0.618  0.00  0.00    +0.000 HD
ENDBRANCH  33  35
ENDBRANCH  14  33
BRANCH   9  37
ATOM     37  C30 UNK     0      -4.615   2.514  -2.367  0.00  0.00    +0.000 C 
BRANCH  37  38
ATOM     38  O3  UNK     0      -5.890   3.105  -2.388  0.00  0.00    +0.000 OA
ATOM     39  H82 UNK     0      -6.378   2.730  -3.167  0.00  0.00    +0.000 HD
ENDBRANCH  37  38
ENDBRANCH   9  37
TORSDOF 6
