REMARK  Name = C:\Users\Maximilian\Desktop\Conformers\converted_pdb\conformers_pdb\Asiatic Acid_conf_35.pdb
REMARK  12 active torsions:
REMARK  status: ('A' for Active; 'I' for Inactive)
REMARK    1  A    between atoms: C6_1  and  C20_15
REMARK    2  A    between atoms: C8_3  and  C25_20
REMARK    3  A    between atoms: C9_4  and  C26_21
REMARK    4  A    between atoms: C14_9  and  C31_25
REMARK    5  A    between atoms: C14_9  and  C30_29
REMARK    6  A    between atoms: C19_14  and  C33_36
REMARK    7  A    between atoms: C22_17  and  O1_32
REMARK    8  A    between atoms: C24_19  and  O2_34
REMARK    9  A    between atoms: C27_22  and  C34_27
REMARK   10  A    between atoms: C29_24  and  C35_28
REMARK   11  A    between atoms: C30_29  and  O3_30
REMARK   12  A    between atoms: C33_36  and  O4_38
REMARK                            x       y       z     vdW  Elec       q    Type
REMARK                         _______ _______ _______ _____ _____    ______ ____
ROOT
ATOM      1  C6  UNK     0       0.372  -0.882   0.321  0.00  0.00    +0.000 C 
ATOM      2  C7  UNK     0       1.079  -0.111  -0.869  0.00  0.00    +0.000 C 
ATOM      3  C8  UNK     0       2.613  -0.456  -1.096  0.00  0.00    +0.000 C 
ATOM      4  C9  UNK     0      -1.014  -0.121   0.613  0.00  0.00    +0.000 C 
ATOM      5  C10 UNK     0       3.307  -0.227   0.310  0.00  0.00    +0.000 C 
ATOM      6  C11 UNK     0       1.264  -0.920   1.623  0.00  0.00    +0.000 C 
ATOM      7  C12 UNK     0      -1.896  -0.214  -0.653  0.00  0.00    +0.000 C 
ATOM      8  C13 UNK     0       2.755  -1.189   1.394  0.00  0.00    +0.000 C 
ATOM      9  C14 UNK     0       4.860   0.026   0.260  0.00  0.00    +0.000 C 
ATOM     10  C15 UNK     0      -3.440  -0.190  -0.572  0.00  0.00    +0.000 C 
ATOM     11  C16 UNK     0       0.176  -0.079  -2.144  0.00  0.00    +0.000 C 
ATOM     12  C17 UNK     0       3.268   0.519  -2.153  0.00  0.00    +0.000 C 
ATOM     13  C18 UNK     0      -1.716  -0.723   1.888  0.00  0.00    +0.000 C 
ATOM     14  C19 UNK     0      -3.924  -1.045   0.631  0.00  0.00    +0.000 C 
ATOM     15  C20 UNK     0       0.109  -2.375  -0.096  0.00  0.00    +0.000 C 
ATOM     16  C21 UNK     0      -3.233  -0.526   1.921  0.00  0.00    +0.000 C 
ATOM     17  C22 UNK     0       5.130   1.343  -0.589  0.00  0.00    +0.000 C 
ATOM     18  C23 UNK     0      -1.317  -0.186  -1.878  0.00  0.00    +0.000 C 
ATOM     19  C24 UNK     0       3.982   1.745  -1.564  0.00  0.00    +0.000 C 
ATOM     20  C25 UNK     0       2.794  -1.920  -1.641  0.00  0.00    +0.000 C 
ATOM     21  C26 UNK     0      -0.815   1.413   0.886  0.00  0.00    +0.000 C 
ATOM     22  C27 UNK     0      -3.992   1.283  -0.579  0.00  0.00    +0.000 C 
ATOM     23  C28 UNK     0      -5.458  -0.941   0.726  0.00  0.00    +0.000 C 
ATOM     24  C29 UNK     0      -5.405   1.540   0.087  0.00  0.00    +0.000 C 
ATOM     25  C31 UNK     0       5.611  -1.205  -0.315  0.00  0.00    +0.000 C 
ATOM     26  C32 UNK     0      -5.915   0.471   1.070  0.00  0.00    +0.000 C 
ATOM     27  C34 UNK     0      -4.014   1.843  -2.032  0.00  0.00    +0.000 C 
ATOM     28  C35 UNK     0      -5.408   2.915   0.799  0.00  0.00    +0.000 C 
ENDROOT
BRANCH  17  29
ATOM     29  O1  UNK     0       6.344   1.243  -1.299  0.00  0.00    +0.000 OA
ATOM     30  H77 UNK     0       6.680   2.170  -1.453  0.00  0.00    +0.000 HD
ENDBRANCH  17  29
BRANCH  19  31
ATOM     31  O2  UNK     0       3.037   2.573  -0.932  0.00  0.00    +0.000 OA
ATOM     32  H78 UNK     0       3.462   3.464  -0.805  0.00  0.00    +0.000 HD
ENDBRANCH  19  31
BRANCH  14  33
ATOM     33  C33 UNK     0      -3.603  -2.520   0.414  0.00  0.00    +0.000 C 
ATOM     34  O5  UNK     0      -3.338  -2.963  -0.736  0.00  0.00    +0.000 OA
BRANCH  33  35
ATOM     35  O4  UNK     0      -3.645  -3.393   1.495  0.00  0.00    +0.000 OA
ATOM     36  H83 UNK     0      -3.494  -4.391   1.369  0.00  0.00    +0.000 HD
ENDBRANCH  33  35
ENDBRANCH  14  33
BRANCH   9  37
ATOM     37  C30 UNK     0       5.417   0.262   1.701  0.00  0.00    +0.000 C 
BRANCH  37  38
ATOM     38  O3  UNK     0       6.730   0.747   1.647  0.00  0.00    +0.000 OA
ATOM     39  H82 UNK     0       7.053   0.775   2.590  0.00  0.00    +0.000 HD
ENDBRANCH  37  38
ENDBRANCH   9  37
TORSDOF 6
