REMARK  Name = C:\Users\Maximilian\Desktop\Conformers\converted_pdb\conformers_pdb\Asiatic Acid_conf_30.pdb
REMARK  12 active torsions:
REMARK  status: ('A' for Active; 'I' for Inactive)
REMARK    1  A    between atoms: C6_1  and  C20_15
REMARK    2  A    between atoms: C8_3  and  C25_20
REMARK    3  A    between atoms: C9_4  and  C26_21
REMARK    4  A    between atoms: C14_9  and  C31_25
REMARK    5  A    between atoms: C14_9  and  C30_29
REMARK    6  A    between atoms: C19_14  and  C33_36
REMARK    7  A    between atoms: C22_17  and  O1_32
REMARK    8  A    between atoms: C24_19  and  O2_34
REMARK    9  A    between atoms: C27_22  and  C34_27
REMARK   10  A    between atoms: C29_24  and  C35_28
REMARK   11  A    between atoms: C30_29  and  O3_30
REMARK   12  A    between atoms: C33_36  and  O4_38
REMARK                            x       y       z     vdW  Elec       q    Type
REMARK                         _______ _______ _______ _____ _____    ______ ____
ROOT
ATOM      1  C6  UNK     0      -0.547   0.710  -0.347  0.00  0.00    +0.000 C 
ATOM      2  C7  UNK     0      -1.009  -0.666   0.269  0.00  0.00    +0.000 C 
ATOM      3  C8  UNK     0      -2.379  -1.267  -0.269  0.00  0.00    +0.000 C 
ATOM      4  C9  UNK     0       0.730   1.197   0.497  0.00  0.00    +0.000 C 
ATOM      5  C10 UNK     0      -3.479  -0.146  -0.104  0.00  0.00    +0.000 C 
ATOM      6  C11 UNK     0      -1.724   1.729  -0.257  0.00  0.00    +0.000 C 
ATOM      7  C12 UNK     0       1.861   0.213   0.184  0.00  0.00    +0.000 C 
ATOM      8  C13 UNK     0      -3.065   1.188  -0.788  0.00  0.00    +0.000 C 
ATOM      9  C14 UNK     0      -4.980  -0.594  -0.397  0.00  0.00    +0.000 C 
ATOM     10  C15 UNK     0       3.165   0.774  -0.444  0.00  0.00    +0.000 C 
ATOM     11  C16 UNK     0       0.174  -1.685   0.421  0.00  0.00    +0.000 C 
ATOM     12  C17 UNK     0      -2.757  -2.513   0.623  0.00  0.00    +0.000 C 
ATOM     13  C18 UNK     0       1.161   2.660   0.149  0.00  0.00    +0.000 C 
ATOM     14  C19 UNK     0       3.694   1.979   0.409  0.00  0.00    +0.000 C 
ATOM     15  C20 UNK     0      -0.151   0.540  -1.859  0.00  0.00    +0.000 C 
ATOM     16  C21 UNK     0       2.560   3.042   0.682  0.00  0.00    +0.000 C 
ATOM     17  C22 UNK     0      -5.215  -2.105   0.004  0.00  0.00    +0.000 C 
ATOM     18  C23 UNK     0       1.577  -1.117   0.268  0.00  0.00    +0.000 C 
ATOM     19  C24 UNK     0      -4.230  -2.601   1.081  0.00  0.00    +0.000 C 
ATOM     20  C25 UNK     0      -2.255  -1.749  -1.748  0.00  0.00    +0.000 C 
ATOM     21  C26 UNK     0       0.489   1.167   2.049  0.00  0.00    +0.000 C 
ATOM     22  C27 UNK     0       4.305  -0.272  -0.774  0.00  0.00    +0.000 C 
ATOM     23  C28 UNK     0       4.254   1.433   1.774  0.00  0.00    +0.000 C 
ATOM     24  C29 UNK     0       5.340  -0.433   0.383  0.00  0.00    +0.000 C 
ATOM     25  C31 UNK     0      -5.374  -0.368  -1.885  0.00  0.00    +0.000 C 
ATOM     26  C32 UNK     0       4.745  -0.030   1.742  0.00  0.00    +0.000 C 
ATOM     27  C34 UNK     0       5.028   0.043  -2.103  0.00  0.00    +0.000 C 
ATOM     28  C35 UNK     0       5.877  -1.870   0.454  0.00  0.00    +0.000 C 
ENDROOT
BRANCH  17  29
ATOM     29  O1  UNK     0      -5.156  -2.952  -1.118  0.00  0.00    +0.000 OA
ATOM     30  H77 UNK     0      -5.509  -3.840  -0.844  0.00  0.00    +0.000 HD
ENDBRANCH  17  29
BRANCH  19  31
ATOM     31  O2  UNK     0      -4.419  -1.874   2.269  0.00  0.00    +0.000 OA
ATOM     32  H78 UNK     0      -4.052  -2.424   3.010  0.00  0.00    +0.000 HD
ENDBRANCH  19  31
BRANCH  14  33
ATOM     33  C33 UNK     0       4.790   2.705  -0.372  0.00  0.00    +0.000 C 
ATOM     34  O5  UNK     0       4.520   3.221  -1.491  0.00  0.00    +0.000 OA
BRANCH  33  35
ATOM     35  O4  UNK     0       6.087   2.818   0.125  0.00  0.00    +0.000 OA
ATOM     36  H83 UNK     0       6.804   3.303  -0.402  0.00  0.00    +0.000 HD
ENDBRANCH  33  35
ENDBRANCH  14  33
BRANCH   9  37
ATOM     37  C30 UNK     0      -5.939   0.299   0.460  0.00  0.00    +0.000 C 
BRANCH  37  38
ATOM     38  O3  UNK     0      -7.285  -0.017   0.213  0.00  0.00    +0.000 OA
ATOM     39  H82 UNK     0      -7.823   0.581   0.795  0.00  0.00    +0.000 HD
ENDBRANCH  37  38
ENDBRANCH   9  37
TORSDOF 6
