REMARK  Name = C:\Users\Maximilian\Desktop\Conformers\converted_pdb\conformers_pdb\Asiatic Acid_conf_40.pdb
REMARK  12 active torsions:
REMARK  status: ('A' for Active; 'I' for Inactive)
REMARK    1  A    between atoms: C6_1  and  C20_15
REMARK    2  A    between atoms: C8_3  and  C25_20
REMARK    3  A    between atoms: C9_4  and  C26_21
REMARK    4  A    between atoms: C14_9  and  C31_25
REMARK    5  A    between atoms: C14_9  and  C30_29
REMARK    6  A    between atoms: C19_14  and  C33_36
REMARK    7  A    between atoms: C22_17  and  O1_32
REMARK    8  A    between atoms: C24_19  and  O2_34
REMARK    9  A    between atoms: C27_22  and  C34_27
REMARK   10  A    between atoms: C29_24  and  C35_28
REMARK   11  A    between atoms: C30_29  and  O3_30
REMARK   12  A    between atoms: C33_36  and  O4_38
REMARK                            x       y       z     vdW  Elec       q    Type
REMARK                         _______ _______ _______ _____ _____    ______ ____
ROOT
ATOM      1  C6  UNK     0       0.302  -0.125   0.723  0.00  0.00    +0.000 C 
ATOM      2  C7  UNK     0       1.158  -0.135  -0.604  0.00  0.00    +0.000 C 
ATOM      3  C8  UNK     0       2.695  -0.541  -0.483  0.00  0.00    +0.000 C 
ATOM      4  C9  UNK     0      -1.140   0.537   0.382  0.00  0.00    +0.000 C 
ATOM      5  C10 UNK     0       3.342   0.355   0.641  0.00  0.00    +0.000 C 
ATOM      6  C11 UNK     0       1.090   0.668   1.823  0.00  0.00    +0.000 C 
ATOM      7  C12 UNK     0      -1.833  -0.301  -0.699  0.00  0.00    +0.000 C 
ATOM      8  C13 UNK     0       2.563   0.249   1.978  0.00  0.00    +0.000 C 
ATOM      9  C14 UNK     0       4.925   0.250   0.795  0.00  0.00    +0.000 C 
ATOM     10  C15 UNK     0      -3.361  -0.481  -0.709  0.00  0.00    +0.000 C 
ATOM     11  C16 UNK     0       0.402  -0.791  -1.809  0.00  0.00    +0.000 C 
ATOM     12  C17 UNK     0       3.388  -0.222  -1.864  0.00  0.00    +0.000 C 
ATOM     13  C18 UNK     0      -2.096   0.677   1.630  0.00  0.00    +0.000 C 
ATOM     14  C19 UNK     0      -3.832  -1.117   0.645  0.00  0.00    +0.000 C 
ATOM     15  C20 UNK     0       0.100  -1.571   1.253  0.00  0.00    +0.000 C 
ATOM     16  C21 UNK     0      -3.140  -0.443   1.895  0.00  0.00    +0.000 C 
ATOM     17  C22 UNK     0       5.617  -0.061  -0.594  0.00  0.00    +0.000 C 
ATOM     18  C23 UNK     0      -1.106  -0.857  -1.695  0.00  0.00    +0.000 C 
ATOM     19  C24 UNK     0       4.794   0.426  -1.797  0.00  0.00    +0.000 C 
ATOM     20  C25 UNK     0       2.872  -2.066  -0.178  0.00  0.00    +0.000 C 
ATOM     21  C26 UNK     0      -0.966   1.980  -0.225  0.00  0.00    +0.000 C 
ATOM     22  C27 UNK     0      -4.095   0.845  -1.107  0.00  0.00    +0.000 C 
ATOM     23  C28 UNK     0      -5.386  -1.033   0.802  0.00  0.00    +0.000 C 
ATOM     24  C29 UNK     0      -5.634   0.714  -0.960  0.00  0.00    +0.000 C 
ATOM     25  C31 UNK     0       5.348  -0.817   1.850  0.00  0.00    +0.000 C 
ATOM     26  C32 UNK     0      -5.956   0.343   0.491  0.00  0.00    +0.000 C 
ATOM     27  C34 UNK     0      -3.702   1.270  -2.538  0.00  0.00    +0.000 C 
ATOM     28  C35 UNK     0      -6.384   2.005  -1.327  0.00  0.00    +0.000 C 
ENDROOT
BRANCH  17  29
ATOM     29  O1  UNK     0       5.885  -1.433  -0.745  0.00  0.00    +0.000 OA
ATOM     30  H77 UNK     0       6.610  -1.519  -1.421  0.00  0.00    +0.000 HD
ENDBRANCH  17  29
BRANCH  19  31
ATOM     31  O2  UNK     0       4.686   1.826  -1.752  0.00  0.00    +0.000 OA
ATOM     32  H78 UNK     0       4.449   2.129  -2.667  0.00  0.00    +0.000 HD
ENDBRANCH  19  31
BRANCH  14  33
ATOM     33  C33 UNK     0      -3.498  -2.618   0.604  0.00  0.00    +0.000 C 
ATOM     34  O5  UNK     0      -2.415  -3.063   1.067  0.00  0.00    +0.000 OA
BRANCH  33  35
ATOM     35  O4  UNK     0      -4.356  -3.518  -0.043  0.00  0.00    +0.000 OA
ATOM     36  H83 UNK     0      -4.161  -4.510  -0.036  0.00  0.00    +0.000 HD
ENDBRANCH  33  35
ENDBRANCH  14  33
BRANCH   9  37
ATOM     37  C30 UNK     0       5.455   1.626   1.323  0.00  0.00    +0.000 C 
BRANCH  37  38
ATOM     38  O3  UNK     0       6.844   1.595   1.521  0.00  0.00    +0.000 OA
ATOM     39  H82 UNK     0       7.099   2.496   1.856  0.00  0.00    +0.000 HD
ENDBRANCH  37  38
ENDBRANCH   9  37
TORSDOF 6
