REMARK  Name = C:\Users\Maximilian\Desktop\Conformers\converted_pdb\conformers_pdb\Asiatic Acid_conf_54.pdb
REMARK  12 active torsions:
REMARK  status: ('A' for Active; 'I' for Inactive)
REMARK    1  A    between atoms: C6_1  and  C20_15
REMARK    2  A    between atoms: C8_3  and  C25_20
REMARK    3  A    between atoms: C9_4  and  C26_21
REMARK    4  A    between atoms: C14_9  and  C31_25
REMARK    5  A    between atoms: C14_9  and  C30_29
REMARK    6  A    between atoms: C19_14  and  C33_36
REMARK    7  A    between atoms: C22_17  and  O1_32
REMARK    8  A    between atoms: C24_19  and  O2_34
REMARK    9  A    between atoms: C27_22  and  C34_27
REMARK   10  A    between atoms: C29_24  and  C35_28
REMARK   11  A    between atoms: C30_29  and  O3_30
REMARK   12  A    between atoms: C33_36  and  O4_38
REMARK                            x       y       z     vdW  Elec       q    Type
REMARK                         _______ _______ _______ _____ _____    ______ ____
ROOT
ATOM      1  C6  UNK     0      -0.419  -0.983  -0.463  0.00  0.00    +0.000 C 
ATOM      2  C7  UNK     0      -1.157  -0.037   0.587  0.00  0.00    +0.000 C 
ATOM      3  C8  UNK     0      -2.728  -0.263   0.778  0.00  0.00    +0.000 C 
ATOM      4  C9  UNK     0       1.020  -0.329  -0.792  0.00  0.00    +0.000 C 
ATOM      5  C10 UNK     0      -3.339  -0.235  -0.682  0.00  0.00    +0.000 C 
ATOM      6  C11 UNK     0      -1.256  -1.145  -1.782  0.00  0.00    +0.000 C 
ATOM      7  C12 UNK     0       1.842  -0.133   0.506  0.00  0.00    +0.000 C 
ATOM      8  C13 UNK     0      -2.763  -1.360  -1.573  0.00  0.00    +0.000 C 
ATOM      9  C14 UNK     0      -4.894   0.024  -0.770  0.00  0.00    +0.000 C 
ATOM     10  C15 UNK     0       3.371  -0.492   0.523  0.00  0.00    +0.000 C 
ATOM     11  C16 UNK     0      -0.319   0.094   1.881  0.00  0.00    +0.000 C 
ATOM     12  C17 UNK     0      -3.374   0.909   1.627  0.00  0.00    +0.000 C 
ATOM     13  C18 UNK     0       1.843  -1.263  -1.733  0.00  0.00    +0.000 C 
ATOM     14  C19 UNK     0       4.099  -0.301  -0.881  0.00  0.00    +0.000 C 
ATOM     15  C20 UNK     0      -0.229  -2.420   0.124  0.00  0.00    +0.000 C 
ATOM     16  C21 UNK     0       3.210  -0.697  -2.107  0.00  0.00    +0.000 C 
ATOM     17  C22 UNK     0      -5.229   1.413  -0.081  0.00  0.00    +0.000 C 
ATOM     18  C23 UNK     0       1.176   0.103   1.675  0.00  0.00    +0.000 C 
ATOM     19  C24 UNK     0      -4.099   1.999   0.822  0.00  0.00    +0.000 C 
ATOM     20  C25 UNK     0      -3.033  -1.606   1.540  0.00  0.00    +0.000 C 
ATOM     21  C26 UNK     0       0.861   1.071  -1.503  0.00  0.00    +0.000 C 
ATOM     22  C27 UNK     0       4.235   0.125   1.706  0.00  0.00    +0.000 C 
ATOM     23  C28 UNK     0       4.523   1.192  -1.063  0.00  0.00    +0.000 C 
ATOM     24  C29 UNK     0       4.684   1.588   1.453  0.00  0.00    +0.000 C 
ATOM     25  C31 UNK     0      -5.689  -1.142  -0.128  0.00  0.00    +0.000 C 
ATOM     26  C32 UNK     0       5.369   1.747   0.087  0.00  0.00    +0.000 C 
ATOM     27  C34 UNK     0       5.447  -0.752   2.088  0.00  0.00    +0.000 C 
ATOM     28  C35 UNK     0       3.534   2.592   1.642  0.00  0.00    +0.000 C 
ENDROOT
BRANCH  17  29
ATOM     29  O1  UNK     0      -6.461   1.378   0.602  0.00  0.00    +0.000 OA
ATOM     30  H77 UNK     0      -6.308   0.996   1.505  0.00  0.00    +0.000 HD
ENDBRANCH  17  29
BRANCH  19  31
ATOM     31  O2  UNK     0      -3.164   2.725   0.061  0.00  0.00    +0.000 OA
ATOM     32  H78 UNK     0      -3.588   3.595  -0.166  0.00  0.00    +0.000 HD
ENDBRANCH  19  31
BRANCH  14  33
ATOM     33  C33 UNK     0       5.327  -1.207  -0.967  0.00  0.00    +0.000 C 
ATOM     34  O5  UNK     0       6.375  -0.822  -1.556  0.00  0.00    +0.000 OA
BRANCH  33  35
ATOM     35  O4  UNK     0       5.262  -2.519  -0.504  0.00  0.00    +0.000 OA
ATOM     36  H83 UNK     0       6.036  -3.154  -0.638  0.00  0.00    +0.000 HD
ENDBRANCH  33  35
ENDBRANCH  14  33
BRANCH   9  37
ATOM     37  C30 UNK     0      -5.374   0.104  -2.257  0.00  0.00    +0.000 C 
BRANCH  37  38
ATOM     38  O3  UNK     0      -4.556   0.957  -3.020  0.00  0.00    +0.000 OA
ATOM     39  H82 UNK     0      -5.070   1.787  -3.196  0.00  0.00    +0.000 HD
ENDBRANCH  37  38
ENDBRANCH   9  37
TORSDOF 6
