REMARK  Name = C:\Users\Maximilian\Desktop\Conformers\converted_pdb\conformers_pdb\Asiatic Acid_conf_3.pdb
REMARK  12 active torsions:
REMARK  status: ('A' for Active; 'I' for Inactive)
REMARK    1  A    between atoms: C6_1  and  C20_15
REMARK    2  A    between atoms: C8_3  and  C25_20
REMARK    3  A    between atoms: C9_4  and  C26_21
REMARK    4  A    between atoms: C14_9  and  C31_25
REMARK    5  A    between atoms: C14_9  and  C30_29
REMARK    6  A    between atoms: C19_14  and  C33_36
REMARK    7  A    between atoms: C22_17  and  O1_32
REMARK    8  A    between atoms: C24_19  and  O2_34
REMARK    9  A    between atoms: C27_22  and  C34_27
REMARK   10  A    between atoms: C29_24  and  C35_28
REMARK   11  A    between atoms: C30_29  and  O3_30
REMARK   12  A    between atoms: C33_36  and  O4_38
REMARK                            x       y       z     vdW  Elec       q    Type
REMARK                         _______ _______ _______ _____ _____    ______ ____
ROOT
ATOM      1  C6  UNK     0      -0.319   0.527  -0.685  0.00  0.00    +0.000 C 
ATOM      2  C7  UNK     0      -1.167  -0.563   0.095  0.00  0.00    +0.000 C 
ATOM      3  C8  UNK     0      -2.703  -0.738  -0.320  0.00  0.00    +0.000 C 
ATOM      4  C9  UNK     0       1.099   0.741   0.077  0.00  0.00    +0.000 C 
ATOM      5  C10 UNK     0      -3.355   0.696  -0.289  0.00  0.00    +0.000 C 
ATOM      6  C11 UNK     0      -1.148   1.857  -0.748  0.00  0.00    +0.000 C 
ATOM      7  C12 UNK     0       1.792  -0.615   0.316  0.00  0.00    +0.000 C 
ATOM      8  C13 UNK     0      -2.599   1.676  -1.220  0.00  0.00    +0.000 C 
ATOM      9  C14 UNK     0      -4.935   0.754  -0.382  0.00  0.00    +0.000 C 
ATOM     10  C15 UNK     0       3.330  -0.730   0.323  0.00  0.00    +0.000 C 
ATOM     11  C16 UNK     0      -0.395  -1.895   0.266  0.00  0.00    +0.000 C 
ATOM     12  C17 UNK     0      -3.416  -1.605   0.770  0.00  0.00    +0.000 C 
ATOM     13  C18 UNK     0       2.095   1.678  -0.702  0.00  0.00    +0.000 C 
ATOM     14  C19 UNK     0       3.961  -0.121  -0.995  0.00  0.00    +0.000 C 
ATOM     15  C20 UNK     0      -0.058   0.078  -2.150  0.00  0.00    +0.000 C 
ATOM     16  C21 UNK     0       3.057   0.961  -1.668  0.00  0.00    +0.000 C 
ATOM     17  C22 UNK     0      -5.534  -0.188   0.715  0.00  0.00    +0.000 C 
ATOM     18  C23 UNK     0       1.077  -1.743   0.527  0.00  0.00    +0.000 C 
ATOM     19  C24 UNK     0      -4.958  -1.615   0.680  0.00  0.00    +0.000 C 
ATOM     20  C25 UNK     0      -2.867  -1.458  -1.704  0.00  0.00    +0.000 C 
ATOM     21  C26 UNK     0       0.894   1.410   1.479  0.00  0.00    +0.000 C 
ATOM     22  C27 UNK     0       3.991  -0.210   1.643  0.00  0.00    +0.000 C 
ATOM     23  C28 UNK     0       5.346   0.522  -0.684  0.00  0.00    +0.000 C 
ATOM     24  C29 UNK     0       5.538  -0.452   1.656  0.00  0.00    +0.000 C 
ATOM     25  C31 UNK     0      -5.471   0.370  -1.788  0.00  0.00    +0.000 C 
ATOM     26  C32 UNK     0       6.171  -0.368   0.246  0.00  0.00    +0.000 C 
ATOM     27  C34 UNK     0       3.348  -0.870   2.884  0.00  0.00    +0.000 C 
ATOM     28  C35 UNK     0       6.245   0.535   2.605  0.00  0.00    +0.000 C 
ENDROOT
BRANCH  17  29
ATOM     29  O1  UNK     0      -6.934  -0.257   0.584  0.00  0.00    +0.000 OA
ATOM     30  H77 UNK     0      -7.325  -0.196   1.495  0.00  0.00    +0.000 HD
ENDBRANCH  17  29
BRANCH  19  31
ATOM     31  O2  UNK     0      -5.475  -2.332   1.771  0.00  0.00    +0.000 OA
ATOM     32  H78 UNK     0      -5.316  -3.295   1.587  0.00  0.00    +0.000 HD
ENDBRANCH  19  31
BRANCH  14  33
ATOM     33  C33 UNK     0       4.136  -1.248  -2.016  0.00  0.00    +0.000 C 
ATOM     34  O5  UNK     0       3.180  -2.039  -2.245  0.00  0.00    +0.000 OA
BRANCH  33  35
ATOM     35  O4  UNK     0       5.322  -1.399  -2.733  0.00  0.00    +0.000 OA
ATOM     36  H83 UNK     0       5.424  -2.136  -3.420  0.00  0.00    +0.000 HD
ENDBRANCH  33  35
ENDBRANCH  14  33
BRANCH   9  37
ATOM     37  C30 UNK     0      -5.458   2.203  -0.098  0.00  0.00    +0.000 C 
BRANCH  37  38
ATOM     38  O3  UNK     0      -4.876   2.762   1.052  0.00  0.00    +0.000 OA
ATOM     39  H82 UNK     0      -5.491   2.581   1.810  0.00  0.00    +0.000 HD
ENDBRANCH  37  38
ENDBRANCH   9  37
TORSDOF 6
