REMARK  Name = C:\Users\Maximilian\Desktop\Conformers\converted_pdb\conformers_pdb\Asiatic Acid_conf_42.pdb
REMARK  12 active torsions:
REMARK  status: ('A' for Active; 'I' for Inactive)
REMARK    1  A    between atoms: C6_1  and  C20_15
REMARK    2  A    between atoms: C8_3  and  C25_20
REMARK    3  A    between atoms: C9_4  and  C26_21
REMARK    4  A    between atoms: C14_9  and  C31_25
REMARK    5  A    between atoms: C14_9  and  C30_29
REMARK    6  A    between atoms: C19_14  and  C33_36
REMARK    7  A    between atoms: C22_17  and  O1_32
REMARK    8  A    between atoms: C24_19  and  O2_34
REMARK    9  A    between atoms: C27_22  and  C34_27
REMARK   10  A    between atoms: C29_24  and  C35_28
REMARK   11  A    between atoms: C30_29  and  O3_30
REMARK   12  A    between atoms: C33_36  and  O4_38
REMARK                            x       y       z     vdW  Elec       q    Type
REMARK                         _______ _______ _______ _____ _____    ______ ____
ROOT
ATOM      1  C6  UNK     0       0.416   1.193   0.259  0.00  0.00    +0.000 C 
ATOM      2  C7  UNK     0       1.120  -0.149   0.692  0.00  0.00    +0.000 C 
ATOM      3  C8  UNK     0       2.700  -0.134   0.775  0.00  0.00    +0.000 C 
ATOM      4  C9  UNK     0      -1.034   0.801  -0.326  0.00  0.00    +0.000 C 
ATOM      5  C10 UNK     0       3.206   0.131  -0.686  0.00  0.00    +0.000 C 
ATOM      6  C11 UNK     0       1.285   2.001  -0.785  0.00  0.00    +0.000 C 
ATOM      7  C12 UNK     0      -1.809  -0.019   0.751  0.00  0.00    +0.000 C 
ATOM      8  C13 UNK     0       2.622   1.424  -1.323  0.00  0.00    +0.000 C 
ATOM      9  C14 UNK     0       4.758  -0.097  -0.948  0.00  0.00    +0.000 C 
ATOM     10  C15 UNK     0      -3.339   0.061   0.938  0.00  0.00    +0.000 C 
ATOM     11  C16 UNK     0       0.366  -0.791   1.871  0.00  0.00    +0.000 C 
ATOM     12  C17 UNK     0       3.194  -1.549   1.217  0.00  0.00    +0.000 C 
ATOM     13  C18 UNK     0      -1.817   2.098  -0.780  0.00  0.00    +0.000 C 
ATOM     14  C19 UNK     0      -4.066   1.132   0.058  0.00  0.00    +0.000 C 
ATOM     15  C20 UNK     0       0.191   2.141   1.504  0.00  0.00    +0.000 C 
ATOM     16  C21 UNK     0      -3.146   2.370  -0.062  0.00  0.00    +0.000 C 
ATOM     17  C22 UNK     0       5.139  -1.530  -0.444  0.00  0.00    +0.000 C 
ATOM     18  C23 UNK     0      -1.133  -0.767   1.675  0.00  0.00    +0.000 C 
ATOM     19  C24 UNK     0       4.701  -1.802   1.014  0.00  0.00    +0.000 C 
ATOM     20  C25 UNK     0       3.210   0.921   1.789  0.00  0.00    +0.000 C 
ATOM     21  C26 UNK     0      -0.899  -0.129  -1.580  0.00  0.00    +0.000 C 
ATOM     22  C27 UNK     0      -4.032  -1.362   0.938  0.00  0.00    +0.000 C 
ATOM     23  C28 UNK     0      -4.463   0.600  -1.372  0.00  0.00    +0.000 C 
ATOM     24  C29 UNK     0      -5.072  -1.568  -0.201  0.00  0.00    +0.000 C 
ATOM     25  C31 UNK     0       5.682   0.969  -0.280  0.00  0.00    +0.000 C 
ATOM     26  C32 UNK     0      -4.566  -0.927  -1.492  0.00  0.00    +0.000 C 
ATOM     27  C34 UNK     0      -4.681  -1.648   2.308  0.00  0.00    +0.000 C 
ATOM     28  C35 UNK     0      -5.365  -3.059  -0.452  0.00  0.00    +0.000 C 
ENDROOT
BRANCH  17  29
ATOM     29  O1  UNK     0       6.528  -1.729  -0.555  0.00  0.00    +0.000 OA
ATOM     30  H77 UNK     0       6.677  -2.706  -0.654  0.00  0.00    +0.000 HD
ENDBRANCH  17  29
BRANCH  19  31
ATOM     31  O2  UNK     0       5.014  -3.124   1.382  0.00  0.00    +0.000 OA
ATOM     32  H78 UNK     0       4.537  -3.735   0.761  0.00  0.00    +0.000 HD
ENDBRANCH  19  31
BRANCH  14  33
ATOM     33  C33 UNK     0      -5.317   1.594   0.820  0.00  0.00    +0.000 C 
ATOM     34  O5  UNK     0      -6.481   1.367   0.387  0.00  0.00    +0.000 OA
BRANCH  33  35
ATOM     35  O4  UNK     0      -5.176   2.260   2.037  0.00  0.00    +0.000 OA
ATOM     36  H83 UNK     0      -5.989   2.552   2.566  0.00  0.00    +0.000 HD
ENDBRANCH  33  35
ENDBRANCH  14  33
BRANCH   9  37
ATOM     37  C30 UNK     0       5.044  -0.071  -2.488  0.00  0.00    +0.000 C 
BRANCH  37  38
ATOM     38  O3  UNK     0       4.962   1.231  -3.008  0.00  0.00    +0.000 OA
ATOM     39  H82 UNK     0       5.566   1.269  -3.797  0.00  0.00    +0.000 HD
ENDBRANCH  37  38
ENDBRANCH   9  37
TORSDOF 6
