REMARK  Name = C:\Users\Maximilian\Desktop\Conformers\converted_pdb\conformers_pdb\Asiatic Acid_conf_12.pdb
REMARK  12 active torsions:
REMARK  status: ('A' for Active; 'I' for Inactive)
REMARK    1  A    between atoms: C6_1  and  C20_15
REMARK    2  A    between atoms: C8_3  and  C25_20
REMARK    3  A    between atoms: C9_4  and  C26_21
REMARK    4  A    between atoms: C14_9  and  C31_25
REMARK    5  A    between atoms: C14_9  and  C30_29
REMARK    6  A    between atoms: C19_14  and  C33_36
REMARK    7  A    between atoms: C22_17  and  O1_32
REMARK    8  A    between atoms: C24_19  and  O2_34
REMARK    9  A    between atoms: C27_22  and  C34_27
REMARK   10  A    between atoms: C29_24  and  C35_28
REMARK   11  A    between atoms: C30_29  and  O3_30
REMARK   12  A    between atoms: C33_36  and  O4_38
REMARK                            x       y       z     vdW  Elec       q    Type
REMARK                         _______ _______ _______ _____ _____    ______ ____
ROOT
ATOM      1  C6  UNK     0       0.501  -0.418   1.150  0.00  0.00    +0.000 C 
ATOM      2  C7  UNK     0       1.072  -0.840  -0.264  0.00  0.00    +0.000 C 
ATOM      3  C8  UNK     0       2.645  -0.966  -0.392  0.00  0.00    +0.000 C 
ATOM      4  C9  UNK     0      -0.933   0.280   0.901  0.00  0.00    +0.000 C 
ATOM      5  C10 UNK     0       3.238   0.465  -0.107  0.00  0.00    +0.000 C 
ATOM      6  C11 UNK     0       1.530   0.491   1.911  0.00  0.00    +0.000 C 
ATOM      7  C12 UNK     0      -1.800  -0.621  -0.027  0.00  0.00    +0.000 C 
ATOM      8  C13 UNK     0       2.556   1.255   1.061  0.00  0.00    +0.000 C 
ATOM      9  C14 UNK     0       4.819   0.596  -0.226  0.00  0.00    +0.000 C 
ATOM     10  C15 UNK     0      -3.327  -0.433  -0.123  0.00  0.00    +0.000 C 
ATOM     11  C16 UNK     0       0.212  -1.980  -0.838  0.00  0.00    +0.000 C 
ATOM     12  C17 UNK     0       3.039  -1.367  -1.863  0.00  0.00    +0.000 C 
ATOM     13  C18 UNK     0      -1.709   0.499   2.247  0.00  0.00    +0.000 C 
ATOM     14  C19 UNK     0      -4.004  -0.133   1.269  0.00  0.00    +0.000 C 
ATOM     15  C20 UNK     0       0.285  -1.680   2.067  0.00  0.00    +0.000 C 
ATOM     16  C21 UNK     0      -3.178   0.906   2.070  0.00  0.00    +0.000 C 
ATOM     17  C22 UNK     0       5.376  -0.335  -1.385  0.00  0.00    +0.000 C 
ATOM     18  C23 UNK     0      -1.253  -1.607  -0.801  0.00  0.00    +0.000 C 
ATOM     19  C24 UNK     0       4.319  -0.706  -2.445  0.00  0.00    +0.000 C 
ATOM     20  C25 UNK     0       3.182  -2.061   0.565  0.00  0.00    +0.000 C 
ATOM     21  C26 UNK     0      -0.766   1.684   0.238  0.00  0.00    +0.000 C 
ATOM     22  C27 UNK     0      -3.790   0.578  -1.221  0.00  0.00    +0.000 C 
ATOM     23  C28 UNK     0      -5.443   0.459   1.066  0.00  0.00    +0.000 C 
ATOM     24  C29 UNK     0      -5.330   0.439  -1.476  0.00  0.00    +0.000 C 
ATOM     25  C31 UNK     0       5.552   0.272   1.109  0.00  0.00    +0.000 C 
ATOM     26  C32 UNK     0      -6.103  -0.043  -0.221  0.00  0.00    +0.000 C 
ATOM     27  C34 UNK     0      -3.017   0.408  -2.543  0.00  0.00    +0.000 C 
ATOM     28  C35 UNK     0      -5.926   1.760  -1.994  0.00  0.00    +0.000 C 
ENDROOT
BRANCH  17  29
ATOM     29  O1  UNK     0       5.958  -1.523  -0.901  0.00  0.00    +0.000 OA
ATOM     30  H77 UNK     0       6.922  -1.347  -0.743  0.00  0.00    +0.000 HD
ENDBRANCH  17  29
BRANCH  19  31
ATOM     31  O2  UNK     0       3.980   0.444  -3.182  0.00  0.00    +0.000 OA
ATOM     32  H78 UNK     0       3.631   0.138  -4.059  0.00  0.00    +0.000 HD
ENDBRANCH  19  31
BRANCH  14  33
ATOM     33  C33 UNK     0      -4.108  -1.411   2.100  0.00  0.00    +0.000 C 
ATOM     34  O5  UNK     0      -3.395  -2.418   1.831  0.00  0.00    +0.000 OA
BRANCH  33  35
ATOM     35  O4  UNK     0      -4.926  -1.444   3.230  0.00  0.00    +0.000 OA
ATOM     36  H83 UNK     0      -4.963  -2.268   3.815  0.00  0.00    +0.000 HD
ENDBRANCH  33  35
ENDBRANCH  14  33
BRANCH   9  37
ATOM     37  C30 UNK     0       5.195   2.068  -0.608  0.00  0.00    +0.000 C 
BRANCH  37  38
ATOM     38  O3  UNK     0       4.806   2.985   0.376  0.00  0.00    +0.000 OA
ATOM     39  H82 UNK     0       5.074   3.882   0.045  0.00  0.00    +0.000 HD
ENDBRANCH  37  38
ENDBRANCH   9  37
TORSDOF 6
