REMARK  Name = C:\Users\Maximilian\Desktop\Conformers\converted_pdb\conformers_pdb\Asiatic Acid_conf_5.pdb
REMARK  12 active torsions:
REMARK  status: ('A' for Active; 'I' for Inactive)
REMARK    1  A    between atoms: C6_1  and  C20_15
REMARK    2  A    between atoms: C8_3  and  C25_20
REMARK    3  A    between atoms: C9_4  and  C26_21
REMARK    4  A    between atoms: C14_9  and  C31_25
REMARK    5  A    between atoms: C14_9  and  C30_29
REMARK    6  A    between atoms: C19_14  and  C33_36
REMARK    7  A    between atoms: C22_17  and  O1_32
REMARK    8  A    between atoms: C24_19  and  O2_34
REMARK    9  A    between atoms: C27_22  and  C34_27
REMARK   10  A    between atoms: C29_24  and  C35_28
REMARK   11  A    between atoms: C30_29  and  O3_30
REMARK   12  A    between atoms: C33_36  and  O4_38
REMARK                            x       y       z     vdW  Elec       q    Type
REMARK                         _______ _______ _______ _____ _____    ______ ____
ROOT
ATOM      1  C6  UNK     0       0.431  -0.825   0.635  0.00  0.00    +0.000 C 
ATOM      2  C7  UNK     0       1.014  -0.483  -0.794  0.00  0.00    +0.000 C 
ATOM      3  C8  UNK     0       2.584  -0.606  -1.060  0.00  0.00    +0.000 C 
ATOM      4  C9  UNK     0      -0.997  -0.064   0.744  0.00  0.00    +0.000 C 
ATOM      5  C10 UNK     0       3.330   0.012   0.186  0.00  0.00    +0.000 C 
ATOM      6  C11 UNK     0       1.408  -0.404   1.791  0.00  0.00    +0.000 C 
ATOM      7  C12 UNK     0      -1.922  -0.508  -0.410  0.00  0.00    +0.000 C 
ATOM      8  C13 UNK     0       2.889  -0.685   1.502  0.00  0.00    +0.000 C 
ATOM      9  C14 UNK     0       4.895   0.242   0.043  0.00  0.00    +0.000 C 
ATOM     10  C15 UNK     0      -3.459  -0.296  -0.333  0.00  0.00    +0.000 C 
ATOM     11  C16 UNK     0       0.096  -1.105  -1.874  0.00  0.00    +0.000 C 
ATOM     12  C17 UNK     0       2.946   0.220  -2.365  0.00  0.00    +0.000 C 
ATOM     13  C18 UNK     0      -1.682  -0.400   2.105  0.00  0.00    +0.000 C 
ATOM     14  C19 UNK     0      -4.043  -0.630   1.101  0.00  0.00    +0.000 C 
ATOM     15  C20 UNK     0       0.230  -2.378   0.778  0.00  0.00    +0.000 C 
ATOM     16  C21 UNK     0      -3.159   0.016   2.200  0.00  0.00    +0.000 C 
ATOM     17  C22 UNK     0       5.277   0.618  -1.444  0.00  0.00    +0.000 C 
ATOM     18  C23 UNK     0      -1.387  -0.939  -1.589  0.00  0.00    +0.000 C 
ATOM     19  C24 UNK     0       4.092   1.230  -2.225  0.00  0.00    +0.000 C 
ATOM     20  C25 UNK     0       3.028  -2.083  -1.320  0.00  0.00    +0.000 C 
ATOM     21  C26 UNK     0      -0.861   1.501   0.634  0.00  0.00    +0.000 C 
ATOM     22  C27 UNK     0      -3.895   1.086  -0.963  0.00  0.00    +0.000 C 
ATOM     23  C28 UNK     0      -5.510  -0.109   1.311  0.00  0.00    +0.000 C 
ATOM     24  C29 UNK     0      -5.347   1.539  -0.598  0.00  0.00    +0.000 C 
ATOM     25  C31 UNK     0       5.702  -1.000   0.525  0.00  0.00    +0.000 C 
ATOM     26  C32 UNK     0      -6.174   0.417   0.046  0.00  0.00    +0.000 C 
ATOM     27  C34 UNK     0      -3.770   1.067  -2.505  0.00  0.00    +0.000 C 
ATOM     28  C35 UNK     0      -5.330   2.830   0.246  0.00  0.00    +0.000 C 
ENDROOT
BRANCH  17  29
ATOM     29  O1  UNK     0       5.781  -0.499  -2.148  0.00  0.00    +0.000 OA
ATOM     30  H77 UNK     0       6.185  -0.160  -2.987  0.00  0.00    +0.000 HD
ENDBRANCH  17  29
BRANCH  19  31
ATOM     31  O2  UNK     0       3.632   2.402  -1.601  0.00  0.00    +0.000 OA
ATOM     32  H78 UNK     0       4.325   3.102  -1.741  0.00  0.00    +0.000 HD
ENDBRANCH  19  31
BRANCH  14  33
ATOM     33  C33 UNK     0      -4.082  -2.151   1.309  0.00  0.00    +0.000 C 
ATOM     34  O5  UNK     0      -4.381  -2.929   0.358  0.00  0.00    +0.000 OA
BRANCH  33  35
ATOM     35  O4  UNK     0      -3.974  -2.685   2.600  0.00  0.00    +0.000 OA
ATOM     36  H83 UNK     0      -4.087  -3.681   2.765  0.00  0.00    +0.000 HD
ENDBRANCH  33  35
ENDBRANCH  14  33
BRANCH   9  37
ATOM     37  C30 UNK     0       5.320   1.432   0.974  0.00  0.00    +0.000 C 
BRANCH  37  38
ATOM     38  O3  UNK     0       6.712   1.619   0.968  0.00  0.00    +0.000 OA
ATOM     39  H82 UNK     0       6.930   2.173   1.767  0.00  0.00    +0.000 HD
ENDBRANCH  37  38
ENDBRANCH   9  37
TORSDOF 6
