REMARK  Name = C:\Users\Maximilian\Desktop\Conformers\converted_pdb\conformers_pdb\Asiatic Acid_conf_13.pdb
REMARK  12 active torsions:
REMARK  status: ('A' for Active; 'I' for Inactive)
REMARK    1  A    between atoms: C6_1  and  C20_15
REMARK    2  A    between atoms: C8_3  and  C25_20
REMARK    3  A    between atoms: C9_4  and  C26_21
REMARK    4  A    between atoms: C14_9  and  C31_25
REMARK    5  A    between atoms: C14_9  and  C30_29
REMARK    6  A    between atoms: C19_14  and  C33_36
REMARK    7  A    between atoms: C22_17  and  O1_32
REMARK    8  A    between atoms: C24_19  and  O2_34
REMARK    9  A    between atoms: C27_22  and  C34_27
REMARK   10  A    between atoms: C29_24  and  C35_28
REMARK   11  A    between atoms: C30_29  and  O3_30
REMARK   12  A    between atoms: C33_36  and  O4_38
REMARK                            x       y       z     vdW  Elec       q    Type
REMARK                         _______ _______ _______ _____ _____    ______ ____
ROOT
ATOM      1  C6  UNK     0      -0.312  -0.021  -0.605  0.00  0.00    +0.000 C 
ATOM      2  C7  UNK     0      -1.137  -0.103   0.738  0.00  0.00    +0.000 C 
ATOM      3  C8  UNK     0      -2.686  -0.447   0.614  0.00  0.00    +0.000 C 
ATOM      4  C9  UNK     0       1.144   0.586  -0.251  0.00  0.00    +0.000 C 
ATOM      5  C10 UNK     0      -3.309   0.587  -0.404  0.00  0.00    +0.000 C 
ATOM      6  C11 UNK     0      -1.092   0.859  -1.641  0.00  0.00    +0.000 C 
ATOM      7  C12 UNK     0       1.841  -0.338   0.755  0.00  0.00    +0.000 C 
ATOM      8  C13 UNK     0      -2.588   0.532  -1.771  0.00  0.00    +0.000 C 
ATOM      9  C14 UNK     0      -4.894   0.634  -0.471  0.00  0.00    +0.000 C 
ATOM     10  C15 UNK     0       3.352  -0.596   0.677  0.00  0.00    +0.000 C 
ATOM     11  C16 UNK     0      -0.385  -0.882   1.861  0.00  0.00    +0.000 C 
ATOM     12  C17 UNK     0      -3.346  -0.202   2.010  0.00  0.00    +0.000 C 
ATOM     13  C18 UNK     0       2.063   0.787  -1.516  0.00  0.00    +0.000 C 
ATOM     14  C19 UNK     0       3.698  -1.184  -0.733  0.00  0.00    +0.000 C 
ATOM     15  C20 UNK     0      -0.148  -1.428  -1.244  0.00  0.00    +0.000 C 
ATOM     16  C21 UNK     0       3.039  -0.354  -1.906  0.00  0.00    +0.000 C 
ATOM     17  C22 UNK     0      -5.433   0.826   0.988  0.00  0.00    +0.000 C 
ATOM     18  C23 UNK     0       1.125  -0.935   1.739  0.00  0.00    +0.000 C 
ATOM     19  C24 UNK     0      -4.885  -0.204   1.998  0.00  0.00    +0.000 C 
ATOM     20  C25 UNK     0      -2.925  -1.940   0.202  0.00  0.00    +0.000 C 
ATOM     21  C26 UNK     0       1.036   1.982   0.465  0.00  0.00    +0.000 C 
ATOM     22  C27 UNK     0       4.196   0.655   1.102  0.00  0.00    +0.000 C 
ATOM     23  C28 UNK     0       5.242  -1.237  -0.948  0.00  0.00    +0.000 C 
ATOM     24  C29 UNK     0       5.714   0.428   0.865  0.00  0.00    +0.000 C 
ATOM     25  C31 UNK     0      -5.518  -0.631  -1.128  0.00  0.00    +0.000 C 
ATOM     26  C32 UNK     0       5.948   0.080  -0.608  0.00  0.00    +0.000 C 
ATOM     27  C34 UNK     0       3.915   1.006   2.579  0.00  0.00    +0.000 C 
ATOM     28  C35 UNK     0       6.564   1.656   1.246  0.00  0.00    +0.000 C 
ENDROOT
BRANCH  17  29
ATOM     29  O1  UNK     0      -6.844   0.855   1.028  0.00  0.00    +0.000 OA
ATOM     30  H77 UNK     0      -7.179  -0.078   0.938  0.00  0.00    +0.000 HD
ENDBRANCH  17  29
BRANCH  19  31
ATOM     31  O2  UNK     0      -5.359   0.130   3.276  0.00  0.00    +0.000 OA
ATOM     32  H78 UNK     0      -5.210  -0.660   3.858  0.00  0.00    +0.000 HD
ENDBRANCH  19  31
BRANCH  14  33
ATOM     33  C33 UNK     0       3.241  -2.648  -0.751  0.00  0.00    +0.000 C 
ATOM     34  O5  UNK     0       2.358  -3.074  -1.553  0.00  0.00    +0.000 OA
BRANCH  33  35
ATOM     35  O4  UNK     0       3.827  -3.550   0.153  0.00  0.00    +0.000 OA
ATOM     36  H83 UNK     0       3.538  -4.521   0.171  0.00  0.00    +0.000 HD
ENDBRANCH  33  35
ENDBRANCH  14  33
BRANCH   9  37
ATOM     37  C30 UNK     0      -5.369   1.884  -1.296  0.00  0.00    +0.000 C 
BRANCH  37  38
ATOM     38  O3  UNK     0      -5.320   1.651  -2.677  0.00  0.00    +0.000 OA
ATOM     39  H82 UNK     0      -5.511   2.519  -3.115  0.00  0.00    +0.000 HD
ENDBRANCH  37  38
ENDBRANCH   9  37
TORSDOF 6
