REMARK  Name = C:\Users\Maximilian\Desktop\Conformers\converted_pdb\conformers_pdb\Asiatic Acid_conf_17.pdb
REMARK  12 active torsions:
REMARK  status: ('A' for Active; 'I' for Inactive)
REMARK    1  A    between atoms: C6_1  and  C20_15
REMARK    2  A    between atoms: C8_3  and  C25_20
REMARK    3  A    between atoms: C9_4  and  C26_21
REMARK    4  A    between atoms: C14_9  and  C31_25
REMARK    5  A    between atoms: C14_9  and  C30_29
REMARK    6  A    between atoms: C19_14  and  C33_36
REMARK    7  A    between atoms: C22_17  and  O1_32
REMARK    8  A    between atoms: C24_19  and  O2_34
REMARK    9  A    between atoms: C27_22  and  C34_27
REMARK   10  A    between atoms: C29_24  and  C35_28
REMARK   11  A    between atoms: C30_29  and  O3_30
REMARK   12  A    between atoms: C33_36  and  O4_38
REMARK                            x       y       z     vdW  Elec       q    Type
REMARK                         _______ _______ _______ _____ _____    ______ ____
ROOT
ATOM      1  C6  UNK     0       0.207   0.424  -0.865  0.00  0.00    +0.000 C 
ATOM      2  C7  UNK     0       1.051   0.542   0.464  0.00  0.00    +0.000 C 
ATOM      3  C8  UNK     0       2.541   1.134   0.381  0.00  0.00    +0.000 C 
ATOM      4  C9  UNK     0      -1.048  -0.561  -0.598  0.00  0.00    +0.000 C 
ATOM      5  C10 UNK     0       3.269   0.449  -0.835  0.00  0.00    +0.000 C 
ATOM      6  C11 UNK     0       1.108  -0.124  -2.016  0.00  0.00    +0.000 C 
ATOM      7  C12 UNK     0      -1.847  -0.064   0.626  0.00  0.00    +0.000 C 
ATOM      8  C13 UNK     0       2.445   0.608  -2.140  0.00  0.00    +0.000 C 
ATOM      9  C14 UNK     0       4.824   0.745  -0.995  0.00  0.00    +0.000 C 
ATOM     10  C15 UNK     0      -3.348  -0.367   0.803  0.00  0.00    +0.000 C 
ATOM     11  C16 UNK     0       0.176   1.152   1.583  0.00  0.00    +0.000 C 
ATOM     12  C17 UNK     0       3.300   0.763   1.716  0.00  0.00    +0.000 C 
ATOM     13  C18 UNK     0      -1.955  -0.630  -1.875  0.00  0.00    +0.000 C 
ATOM     14  C19 UNK     0      -4.134  -0.310  -0.555  0.00  0.00    +0.000 C 
ATOM     15  C20 UNK     0      -0.331   1.835  -1.296  0.00  0.00    +0.000 C 
ATOM     16  C21 UNK     0      -3.376  -1.143  -1.624  0.00  0.00    +0.000 C 
ATOM     17  C22 UNK     0       5.519   0.901   0.416  0.00  0.00    +0.000 C 
ATOM     18  C23 UNK     0      -1.224   0.599   1.636  0.00  0.00    +0.000 C 
ATOM     19  C24 UNK     0       4.737   0.219   1.557  0.00  0.00    +0.000 C 
ATOM     20  C25 UNK     0       2.571   2.692   0.255  0.00  0.00    +0.000 C 
ATOM     21  C26 UNK     0      -0.625  -2.032  -0.263  0.00  0.00    +0.000 C 
ATOM     22  C27 UNK     0      -3.672  -1.680   1.591  0.00  0.00    +0.000 C 
ATOM     23  C28 UNK     0      -5.572  -0.915  -0.403  0.00  0.00    +0.000 C 
ATOM     24  C29 UNK     0      -5.193  -1.731   1.977  0.00  0.00    +0.000 C 
ATOM     25  C31 UNK     0       5.087   2.000  -1.878  0.00  0.00    +0.000 C 
ATOM     26  C32 UNK     0      -6.085  -0.881   1.037  0.00  0.00    +0.000 C 
ATOM     27  C34 UNK     0      -2.807  -1.848   2.856  0.00  0.00    +0.000 C 
ATOM     28  C35 UNK     0      -5.700  -3.186   2.030  0.00  0.00    +0.000 C 
ENDROOT
BRANCH  17  29
ATOM     29  O1  UNK     0       5.727   2.250   0.760  0.00  0.00    +0.000 OA
ATOM     30  H77 UNK     0       6.665   2.484   0.531  0.00  0.00    +0.000 HD
ENDBRANCH  17  29
BRANCH  19  31
ATOM     31  O2  UNK     0       4.695  -1.175   1.368  0.00  0.00    +0.000 OA
ATOM     32  H78 UNK     0       5.611  -1.524   1.537  0.00  0.00    +0.000 HD
ENDBRANCH  19  31
BRANCH  14  33
ATOM     33  C33 UNK     0      -4.277   1.135  -1.034  0.00  0.00    +0.000 C 
ATOM     34  O5  UNK     0      -4.590   1.372  -2.234  0.00  0.00    +0.000 OA
BRANCH  33  35
ATOM     35  O4  UNK     0      -4.101   2.207  -0.161  0.00  0.00    +0.000 OA
ATOM     36  H83 UNK     0      -4.212   3.160  -0.483  0.00  0.00    +0.000 HD
ENDBRANCH  33  35
ENDBRANCH  14  33
BRANCH   9  37
ATOM     37  C30 UNK     0       5.481  -0.473  -1.732  0.00  0.00    +0.000 C 
BRANCH  37  38
ATOM     38  O3  UNK     0       6.859  -0.282  -1.923  0.00  0.00    +0.000 OA
ATOM     39  H82 UNK     0       6.979   0.084  -2.836  0.00  0.00    +0.000 HD
ENDBRANCH  37  38
ENDBRANCH   9  37
TORSDOF 6
