REMARK  Name = C:\Users\Maximilian\Desktop\Conformers\converted_pdb\conformers_pdb\Asiatic Acid_conf_16.pdb
REMARK  12 active torsions:
REMARK  status: ('A' for Active; 'I' for Inactive)
REMARK    1  A    between atoms: C6_1  and  C20_15
REMARK    2  A    between atoms: C8_3  and  C25_20
REMARK    3  A    between atoms: C9_4  and  C26_21
REMARK    4  A    between atoms: C14_9  and  C31_25
REMARK    5  A    between atoms: C14_9  and  C30_29
REMARK    6  A    between atoms: C19_14  and  C33_36
REMARK    7  A    between atoms: C22_17  and  O1_32
REMARK    8  A    between atoms: C24_19  and  O2_34
REMARK    9  A    between atoms: C27_22  and  C34_27
REMARK   10  A    between atoms: C29_24  and  C35_28
REMARK   11  A    between atoms: C30_29  and  O3_30
REMARK   12  A    between atoms: C33_36  and  O4_38
REMARK                            x       y       z     vdW  Elec       q    Type
REMARK                         _______ _______ _______ _____ _____    ______ ____
ROOT
ATOM      1  C6  UNK     0       0.372   0.302  -1.013  0.00  0.00    +0.000 C 
ATOM      2  C7  UNK     0       1.191   0.386   0.339  0.00  0.00    +0.000 C 
ATOM      3  C8  UNK     0       2.788   0.500   0.269  0.00  0.00    +0.000 C 
ATOM      4  C9  UNK     0      -1.128  -0.221  -0.689  0.00  0.00    +0.000 C 
ATOM      5  C10 UNK     0       3.307  -0.549  -0.784  0.00  0.00    +0.000 C 
ATOM      6  C11 UNK     0       1.095  -0.663  -2.005  0.00  0.00    +0.000 C 
ATOM      7  C12 UNK     0      -1.747   0.582   0.484  0.00  0.00    +0.000 C 
ATOM      8  C13 UNK     0       2.592  -0.382  -2.149  0.00  0.00    +0.000 C 
ATOM      9  C14 UNK     0       4.885  -0.720  -0.884  0.00  0.00    +0.000 C 
ATOM     10  C15 UNK     0      -3.275   0.661   0.700  0.00  0.00    +0.000 C 
ATOM     11  C16 UNK     0       0.520   1.399   1.290  0.00  0.00    +0.000 C 
ATOM     12  C17 UNK     0       3.374   0.143   1.693  0.00  0.00    +0.000 C 
ATOM     13  C18 UNK     0      -2.045  -0.085  -1.954  0.00  0.00    +0.000 C 
ATOM     14  C19 UNK     0      -4.083   0.755  -0.649  0.00  0.00    +0.000 C 
ATOM     15  C20 UNK     0       0.297   1.715  -1.684  0.00  0.00    +0.000 C 
ATOM     16  C21 UNK     0      -3.538  -0.278  -1.668  0.00  0.00    +0.000 C 
ATOM     17  C22 UNK     0       5.563  -0.590   0.542  0.00  0.00    +0.000 C 
ATOM     18  C23 UNK     0      -0.965   1.201   1.406  0.00  0.00    +0.000 C 
ATOM     19  C24 UNK     0       4.588  -0.815   1.715  0.00  0.00    +0.000 C 
ATOM     20  C25 UNK     0       3.280   1.944  -0.075  0.00  0.00    +0.000 C 
ATOM     21  C26 UNK     0      -1.153  -1.732  -0.279  0.00  0.00    +0.000 C 
ATOM     22  C27 UNK     0      -3.877  -0.435   1.644  0.00  0.00    +0.000 C 
ATOM     23  C28 UNK     0      -5.602   0.447  -0.413  0.00  0.00    +0.000 C 
ATOM     24  C29 UNK     0      -5.334  -0.044   2.070  0.00  0.00    +0.000 C 
ATOM     25  C31 UNK     0       5.519   0.293  -1.883  0.00  0.00    +0.000 C 
ATOM     26  C32 UNK     0      -6.056   0.818   1.001  0.00  0.00    +0.000 C 
ATOM     27  C34 UNK     0      -3.009  -0.696   2.889  0.00  0.00    +0.000 C 
ATOM     28  C35 UNK     0      -6.172  -1.293   2.401  0.00  0.00    +0.000 C 
ENDROOT
BRANCH  17  29
ATOM     29  O1  UNK     0       6.183   0.660   0.723  0.00  0.00    +0.000 OA
ATOM     30  H77 UNK     0       7.126   0.574   0.420  0.00  0.00    +0.000 HD
ENDBRANCH  17  29
BRANCH  19  31
ATOM     31  O2  UNK     0       4.153  -2.151   1.731  0.00  0.00    +0.000 OA
ATOM     32  H78 UNK     0       3.855  -2.352   2.656  0.00  0.00    +0.000 HD
ENDBRANCH  19  31
BRANCH  14  33
ATOM     33  C33 UNK     0      -3.967   2.153  -1.258  0.00  0.00    +0.000 C 
ATOM     34  O5  UNK     0      -3.200   3.023  -0.760  0.00  0.00    +0.000 OA
BRANCH  33  35
ATOM     35  O4  UNK     0      -4.677   2.463  -2.417  0.00  0.00    +0.000 OA
ATOM     36  H83 UNK     0      -4.584   3.370  -2.856  0.00  0.00    +0.000 HD
ENDBRANCH  33  35
ENDBRANCH  14  33
BRANCH   9  37
ATOM     37  C30 UNK     0       5.232  -2.132  -1.472  0.00  0.00    +0.000 C 
BRANCH  37  38
ATOM     38  O3  UNK     0       4.683  -3.178  -0.713  0.00  0.00    +0.000 OA
ATOM     39  H82 UNK     0       5.427  -3.607  -0.216  0.00  0.00    +0.000 HD
ENDBRANCH  37  38
ENDBRANCH   9  37
TORSDOF 6
