REMARK  Name = C:\Users\Maximilian\Desktop\Conformers\converted_pdb\conformers_pdb\Asiatic Acid_conf_47.pdb
REMARK  12 active torsions:
REMARK  status: ('A' for Active; 'I' for Inactive)
REMARK    1  A    between atoms: C6_1  and  C20_15
REMARK    2  A    between atoms: C8_3  and  C25_20
REMARK    3  A    between atoms: C9_4  and  C26_21
REMARK    4  A    between atoms: C14_9  and  C31_25
REMARK    5  A    between atoms: C14_9  and  C30_29
REMARK    6  A    between atoms: C19_14  and  C33_36
REMARK    7  A    between atoms: C22_17  and  O1_32
REMARK    8  A    between atoms: C24_19  and  O2_34
REMARK    9  A    between atoms: C27_22  and  C34_27
REMARK   10  A    between atoms: C29_24  and  C35_28
REMARK   11  A    between atoms: C30_29  and  O3_30
REMARK   12  A    between atoms: C33_36  and  O4_38
REMARK                            x       y       z     vdW  Elec       q    Type
REMARK                         _______ _______ _______ _____ _____    ______ ____
ROOT
ATOM      1  C6  UNK     0       0.447   0.693  -0.339  0.00  0.00    +0.000 C 
ATOM      2  C7  UNK     0       1.095  -0.492   0.493  0.00  0.00    +0.000 C 
ATOM      3  C8  UNK     0       2.556  -0.229   1.056  0.00  0.00    +0.000 C 
ATOM      4  C9  UNK     0      -0.901   0.115  -0.993  0.00  0.00    +0.000 C 
ATOM      5  C10 UNK     0       3.433   0.181  -0.200  0.00  0.00    +0.000 C 
ATOM      6  C11 UNK     0       1.448   1.204  -1.426  0.00  0.00    +0.000 C 
ATOM      7  C12 UNK     0      -1.871  -0.148   0.164  0.00  0.00    +0.000 C 
ATOM      8  C13 UNK     0       2.886   1.443  -0.913  0.00  0.00    +0.000 C 
ATOM      9  C14 UNK     0       4.992   0.058   0.018  0.00  0.00    +0.000 C 
ATOM     10  C15 UNK     0      -3.234   0.593   0.155  0.00  0.00    +0.000 C 
ATOM     11  C16 UNK     0       0.074  -1.143   1.488  0.00  0.00    +0.000 C 
ATOM     12  C17 UNK     0       3.159  -1.542   1.701  0.00  0.00    +0.000 C 
ATOM     13  C18 UNK     0      -1.539   1.095  -2.032  0.00  0.00    +0.000 C 
ATOM     14  C19 UNK     0      -3.943   0.380  -1.227  0.00  0.00    +0.000 C 
ATOM     15  C20 UNK     0       0.106   1.917   0.585  0.00  0.00    +0.000 C 
ATOM     16  C21 UNK     0      -2.985   0.725  -2.431  0.00  0.00    +0.000 C 
ATOM     17  C22 UNK     0       5.332  -1.465   0.332  0.00  0.00    +0.000 C 
ATOM     18  C23 UNK     0      -1.398  -0.842   1.238  0.00  0.00    +0.000 C 
ATOM     19  C24 UNK     0       4.128  -2.331   0.809  0.00  0.00    +0.000 C 
ATOM     20  C25 UNK     0       2.531   0.874   2.176  0.00  0.00    +0.000 C 
ATOM     21  C26 UNK     0      -0.677  -1.245  -1.747  0.00  0.00    +0.000 C 
ATOM     22  C27 UNK     0      -4.204   0.316   1.373  0.00  0.00    +0.000 C 
ATOM     23  C28 UNK     0      -4.418  -1.117  -1.331  0.00  0.00    +0.000 C 
ATOM     24  C29 UNK     0      -5.218  -0.838   1.094  0.00  0.00    +0.000 C 
ATOM     25  C31 UNK     0       5.488   0.985   1.160  0.00  0.00    +0.000 C 
ATOM     26  C32 UNK     0      -4.700  -1.808   0.020  0.00  0.00    +0.000 C 
ATOM     27  C34 UNK     0      -4.951   1.588   1.831  0.00  0.00    +0.000 C 
ATOM     28  C35 UNK     0      -5.548  -1.610   2.381  0.00  0.00    +0.000 C 
ENDROOT
BRANCH  17  29
ATOM     29  O1  UNK     0       6.369  -1.576   1.277  0.00  0.00    +0.000 OA
ATOM     30  H77 UNK     0       7.217  -1.363   0.806  0.00  0.00    +0.000 HD
ENDBRANCH  17  29
BRANCH  19  31
ATOM     31  O2  UNK     0       3.427  -2.877  -0.281  0.00  0.00    +0.000 OA
ATOM     32  H78 UNK     0       3.977  -3.624  -0.636  0.00  0.00    +0.000 HD
ENDBRANCH  19  31
BRANCH  14  33
ATOM     33  C33 UNK     0      -5.126   1.341  -1.337  0.00  0.00    +0.000 C 
ATOM     34  O5  UNK     0      -6.301   0.927  -1.534  0.00  0.00    +0.000 OA
BRANCH  33  35
ATOM     35  O4  UNK     0      -4.901   2.713  -1.243  0.00  0.00    +0.000 OA
ATOM     36  H83 UNK     0      -5.666   3.372  -1.318  0.00  0.00    +0.000 HD
ENDBRANCH  33  35
ENDBRANCH  14  33
BRANCH   9  37
ATOM     37  C30 UNK     0       5.776   0.444  -1.278  0.00  0.00    +0.000 C 
BRANCH  37  38
ATOM     38  O3  UNK     0       5.838   1.835  -1.457  0.00  0.00    +0.000 OA
ATOM     39  H82 UNK     0       6.308   1.983  -2.318  0.00  0.00    +0.000 HD
ENDBRANCH  37  38
ENDBRANCH   9  37
TORSDOF 6
