REMARK  Name = C:\Users\Maximilian\Desktop\Conformers\converted_pdb\conformers_pdb\Asiatic Acid_conf_26.pdb
REMARK  12 active torsions:
REMARK  status: ('A' for Active; 'I' for Inactive)
REMARK    1  A    between atoms: C6_1  and  C20_15
REMARK    2  A    between atoms: C8_3  and  C25_20
REMARK    3  A    between atoms: C9_4  and  C26_21
REMARK    4  A    between atoms: C14_9  and  C31_25
REMARK    5  A    between atoms: C14_9  and  C30_29
REMARK    6  A    between atoms: C19_14  and  C33_36
REMARK    7  A    between atoms: C22_17  and  O1_32
REMARK    8  A    between atoms: C24_19  and  O2_34
REMARK    9  A    between atoms: C27_22  and  C34_27
REMARK   10  A    between atoms: C29_24  and  C35_28
REMARK   11  A    between atoms: C30_29  and  O3_30
REMARK   12  A    between atoms: C33_36  and  O4_38
REMARK                            x       y       z     vdW  Elec       q    Type
REMARK                         _______ _______ _______ _____ _____    ______ ____
ROOT
ATOM      1  C6  UNK     0       0.455  -0.066  -0.752  0.00  0.00    +0.000 C 
ATOM      2  C7  UNK     0       1.180   0.020   0.645  0.00  0.00    +0.000 C 
ATOM      3  C8  UNK     0       2.647   0.630   0.663  0.00  0.00    +0.000 C 
ATOM      4  C9  UNK     0      -0.908  -0.904  -0.544  0.00  0.00    +0.000 C 
ATOM      5  C10 UNK     0       3.501  -0.186  -0.389  0.00  0.00    +0.000 C 
ATOM      6  C11 UNK     0       1.416  -0.757  -1.768  0.00  0.00    +0.000 C 
ATOM      7  C12 UNK     0      -1.825  -0.109   0.391  0.00  0.00    +0.000 C 
ATOM      8  C13 UNK     0       2.839  -0.163  -1.795  0.00  0.00    +0.000 C 
ATOM      9  C14 UNK     0       5.071   0.057  -0.363  0.00  0.00    +0.000 C 
ATOM     10  C15 UNK     0      -3.283   0.216  -0.043  0.00  0.00    +0.000 C 
ATOM     11  C16 UNK     0       0.235   0.516   1.781  0.00  0.00    +0.000 C 
ATOM     12  C17 UNK     0       3.261   0.372   2.077  0.00  0.00    +0.000 C 
ATOM     13  C18 UNK     0      -1.622  -1.166  -1.906  0.00  0.00    +0.000 C 
ATOM     14  C19 UNK     0      -3.986  -0.948  -0.867  0.00  0.00    +0.000 C 
ATOM     15  C20 UNK     0       0.120   1.363  -1.310  0.00  0.00    +0.000 C 
ATOM     16  C21 UNK     0      -3.008  -1.787  -1.756  0.00  0.00    +0.000 C 
ATOM     17  C22 UNK     0       5.574  -0.151   1.112  0.00  0.00    +0.000 C 
ATOM     18  C23 UNK     0      -1.248   0.511   1.463  0.00  0.00    +0.000 C 
ATOM     19  C24 UNK     0       4.774   0.651   2.167  0.00  0.00    +0.000 C 
ATOM     20  C25 UNK     0       2.630   2.172   0.395  0.00  0.00    +0.000 C 
ATOM     21  C26 UNK     0      -0.681  -2.295   0.144  0.00  0.00    +0.000 C 
ATOM     22  C27 UNK     0      -4.189   0.754   1.144  0.00  0.00    +0.000 C 
ATOM     23  C28 UNK     0      -4.665  -1.907   0.148  0.00  0.00    +0.000 C 
ATOM     24  C29 UNK     0      -5.674   0.289   1.079  0.00  0.00    +0.000 C 
ATOM     25  C31 UNK     0       5.468   1.456  -0.903  0.00  0.00    +0.000 C 
ATOM     26  C32 UNK     0      -5.775  -1.249   0.988  0.00  0.00    +0.000 C 
ATOM     27  C34 UNK     0      -4.111   2.297   1.214  0.00  0.00    +0.000 C 
ATOM     28  C35 UNK     0      -6.497   0.777   2.287  0.00  0.00    +0.000 C 
ENDROOT
BRANCH  17  29
ATOM     29  O1  UNK     0       6.951   0.113   1.248  0.00  0.00    +0.000 OA
ATOM     30  H77 UNK     0       7.083   1.097   1.229  0.00  0.00    +0.000 HD
ENDBRANCH  17  29
BRANCH  19  31
ATOM     31  O2  UNK     0       5.240   0.356   3.462  0.00  0.00    +0.000 OA
ATOM     32  H78 UNK     0       5.103  -0.614   3.623  0.00  0.00    +0.000 HD
ENDBRANCH  19  31
BRANCH  14  33
ATOM     33  C33 UNK     0      -5.038  -0.383  -1.823  0.00  0.00    +0.000 C 
ATOM     34  O5  UNK     0      -4.871   0.737  -2.379  0.00  0.00    +0.000 OA
BRANCH  33  35
ATOM     35  O4  UNK     0      -6.149  -1.150  -2.172  0.00  0.00    +0.000 OA
ATOM     36  H83 UNK     0      -6.837  -0.801  -2.827  0.00  0.00    +0.000 HD
ENDBRANCH  33  35
ENDBRANCH  14  33
BRANCH   9  37
ATOM     37  C30 UNK     0       5.767  -1.010  -1.275  0.00  0.00    +0.000 C 
BRANCH  37  38
ATOM     38  O3  UNK     0       7.167  -0.989  -1.143  0.00  0.00    +0.000 OA
ATOM     39  H82 UNK     0       7.423  -1.777  -0.596  0.00  0.00    +0.000 HD
ENDBRANCH  37  38
ENDBRANCH   9  37
TORSDOF 6
