REMARK  Name = C:\Users\Maximilian\Desktop\Conformers\converted_pdb\conformers_pdb\Asiatic Acid_conf_25.pdb
REMARK  12 active torsions:
REMARK  status: ('A' for Active; 'I' for Inactive)
REMARK    1  A    between atoms: C6_1  and  C20_15
REMARK    2  A    between atoms: C8_3  and  C25_20
REMARK    3  A    between atoms: C9_4  and  C26_21
REMARK    4  A    between atoms: C14_9  and  C31_25
REMARK    5  A    between atoms: C14_9  and  C30_29
REMARK    6  A    between atoms: C19_14  and  C33_36
REMARK    7  A    between atoms: C22_17  and  O1_32
REMARK    8  A    between atoms: C24_19  and  O2_34
REMARK    9  A    between atoms: C27_22  and  C34_27
REMARK   10  A    between atoms: C29_24  and  C35_28
REMARK   11  A    between atoms: C30_29  and  O3_30
REMARK   12  A    between atoms: C33_36  and  O4_38
REMARK                            x       y       z     vdW  Elec       q    Type
REMARK                         _______ _______ _______ _____ _____    ______ ____
ROOT
ATOM      1  C6  UNK     0       0.306   0.645  -0.369  0.00  0.00    +0.000 C 
ATOM      2  C7  UNK     0       1.106  -0.343   0.561  0.00  0.00    +0.000 C 
ATOM      3  C8  UNK     0       2.644  -0.015   0.802  0.00  0.00    +0.000 C 
ATOM      4  C9  UNK     0      -1.117  -0.042  -0.699  0.00  0.00    +0.000 C 
ATOM      5  C10 UNK     0       3.314   0.143  -0.619  0.00  0.00    +0.000 C 
ATOM      6  C11 UNK     0       1.119   0.923  -1.675  0.00  0.00    +0.000 C 
ATOM      7  C12 UNK     0      -1.877  -0.224   0.630  0.00  0.00    +0.000 C 
ATOM      8  C13 UNK     0       2.604   1.250  -1.448  0.00  0.00    +0.000 C 
ATOM      9  C14 UNK     0       4.903   0.177  -0.653  0.00  0.00    +0.000 C 
ATOM     10  C15 UNK     0      -3.411  -0.184   0.705  0.00  0.00    +0.000 C 
ATOM     11  C16 UNK     0       0.307  -0.718   1.848  0.00  0.00    +0.000 C 
ATOM     12  C17 UNK     0       3.288  -1.250   1.510  0.00  0.00    +0.000 C 
ATOM     13  C18 UNK     0      -1.914   0.810  -1.756  0.00  0.00    +0.000 C 
ATOM     14  C19 UNK     0      -3.970   0.930  -0.236  0.00  0.00    +0.000 C 
ATOM     15  C20 UNK     0       0.092   2.020   0.360  0.00  0.00    +0.000 C 
ATOM     16  C21 UNK     0      -3.441   0.689  -1.674  0.00  0.00    +0.000 C 
ATOM     17  C22 UNK     0       5.438  -1.069   0.143  0.00  0.00    +0.000 C 
ATOM     18  C23 UNK     0      -1.193  -0.538   1.760  0.00  0.00    +0.000 C 
ATOM     19  C24 UNK     0       4.826  -1.218   1.555  0.00  0.00    +0.000 C 
ATOM     20  C25 UNK     0       2.833   1.246   1.716  0.00  0.00    +0.000 C 
ATOM     21  C26 UNK     0      -0.990  -1.481  -1.305  0.00  0.00    +0.000 C 
ATOM     22  C27 UNK     0      -4.068  -1.592   0.457  0.00  0.00    +0.000 C 
ATOM     23  C28 UNK     0      -5.520   0.928  -0.218  0.00  0.00    +0.000 C 
ATOM     24  C29 UNK     0      -5.621  -1.489   0.519  0.00  0.00    +0.000 C 
ATOM     25  C31 UNK     0       5.482   1.501  -0.087  0.00  0.00    +0.000 C 
ATOM     26  C32 UNK     0      -6.130  -0.446  -0.488  0.00  0.00    +0.000 C 
ATOM     27  C34 UNK     0      -3.550  -2.641   1.464  0.00  0.00    +0.000 C 
ATOM     28  C35 UNK     0      -6.320  -2.833   0.237  0.00  0.00    +0.000 C 
ENDROOT
BRANCH  17  29
ATOM     29  O1  UNK     0       6.845  -1.089   0.222  0.00  0.00    +0.000 OA
ATOM     30  H77 UNK     0       7.131  -0.406   0.883  0.00  0.00    +0.000 HD
ENDBRANCH  17  29
BRANCH  19  31
ATOM     31  O2  UNK     0       5.311  -2.382   2.181  0.00  0.00    +0.000 OA
ATOM     32  H78 UNK     0       5.056  -3.159   1.619  0.00  0.00    +0.000 HD
ENDBRANCH  19  31
BRANCH  14  33
ATOM     33  C33 UNK     0      -3.547   2.318   0.236  0.00  0.00    +0.000 C 
ATOM     34  O5  UNK     0      -3.172   2.514   1.424  0.00  0.00    +0.000 OA
BRANCH  33  35
ATOM     35  O4  UNK     0      -3.647   3.405  -0.630  0.00  0.00    +0.000 OA
ATOM     36  H83 UNK     0      -3.385   4.336  -0.328  0.00  0.00    +0.000 HD
ENDBRANCH  33  35
ENDBRANCH  14  33
BRANCH   9  37
ATOM     37  C30 UNK     0       5.388   0.051  -2.137  0.00  0.00    +0.000 C 
BRANCH  37  38
ATOM     38  O3  UNK     0       6.777  -0.133  -2.217  0.00  0.00    +0.000 OA
ATOM     39  H82 UNK     0       6.992  -0.223  -3.181  0.00  0.00    +0.000 HD
ENDBRANCH  37  38
ENDBRANCH   9  37
TORSDOF 6
