REMARK  Name = C:\Users\Maximilian\Desktop\Conformers\converted_pdb\conformers_pdb\Asiatic Acid_conf_48.pdb
REMARK  12 active torsions:
REMARK  status: ('A' for Active; 'I' for Inactive)
REMARK    1  A    between atoms: C6_1  and  C20_15
REMARK    2  A    between atoms: C8_3  and  C25_20
REMARK    3  A    between atoms: C9_4  and  C26_21
REMARK    4  A    between atoms: C14_9  and  C31_25
REMARK    5  A    between atoms: C14_9  and  C30_29
REMARK    6  A    between atoms: C19_14  and  C33_36
REMARK    7  A    between atoms: C22_17  and  O1_32
REMARK    8  A    between atoms: C24_19  and  O2_34
REMARK    9  A    between atoms: C27_22  and  C34_27
REMARK   10  A    between atoms: C29_24  and  C35_28
REMARK   11  A    between atoms: C30_29  and  O3_30
REMARK   12  A    between atoms: C33_36  and  O4_38
REMARK                            x       y       z     vdW  Elec       q    Type
REMARK                         _______ _______ _______ _____ _____    ______ ____
ROOT
ATOM      1  C6  UNK     0      -0.523  -0.064  -0.918  0.00  0.00    +0.000 C 
ATOM      2  C7  UNK     0      -1.100  -0.755   0.394  0.00  0.00    +0.000 C 
ATOM      3  C8  UNK     0      -2.671  -1.078   0.430  0.00  0.00    +0.000 C 
ATOM      4  C9  UNK     0       0.931   0.559  -0.569  0.00  0.00    +0.000 C 
ATOM      5  C10 UNK     0      -3.409   0.238  -0.041  0.00  0.00    +0.000 C 
ATOM      6  C11 UNK     0      -1.490   1.047  -1.451  0.00  0.00    +0.000 C 
ATOM      7  C12 UNK     0       1.838  -0.530   0.048  0.00  0.00    +0.000 C 
ATOM      8  C13 UNK     0      -2.974   0.655  -1.466  0.00  0.00    +0.000 C 
ATOM      9  C14 UNK     0      -4.943   0.331   0.334  0.00  0.00    +0.000 C 
ATOM     10  C15 UNK     0       3.377  -0.444  -0.017  0.00  0.00    +0.000 C 
ATOM     11  C16 UNK     0      -0.158  -1.917   0.811  0.00  0.00    +0.000 C 
ATOM     12  C17 UNK     0      -3.140  -1.423   1.904  0.00  0.00    +0.000 C 
ATOM     13  C18 UNK     0       1.591   1.151  -1.862  0.00  0.00    +0.000 C 
ATOM     14  C19 UNK     0       3.896   0.138  -1.384  0.00  0.00    +0.000 C 
ATOM     15  C20 UNK     0      -0.367  -1.126  -2.064  0.00  0.00    +0.000 C 
ATOM     16  C21 UNK     0       3.095   1.416  -1.744  0.00  0.00    +0.000 C 
ATOM     17  C22 UNK     0      -5.075   0.270   1.919  0.00  0.00    +0.000 C 
ATOM     18  C23 UNK     0       1.306  -1.568   0.743  0.00  0.00    +0.000 C 
ATOM     19  C24 UNK     0      -3.830  -0.286   2.670  0.00  0.00    +0.000 C 
ATOM     20  C25 UNK     0      -3.036  -2.322  -0.460  0.00  0.00    +0.000 C 
ATOM     21  C26 UNK     0       0.867   1.721   0.479  0.00  0.00    +0.000 C 
ATOM     22  C27 UNK     0       4.056   0.278   1.195  0.00  0.00    +0.000 C 
ATOM     23  C28 UNK     0       5.410   0.529  -1.295  0.00  0.00    +0.000 C 
ATOM     24  C29 UNK     0       5.602   0.021   1.192  0.00  0.00    +0.000 C 
ATOM     25  C31 UNK     0      -5.774  -0.793  -0.341  0.00  0.00    +0.000 C 
ATOM     26  C32 UNK     0       6.161  -0.267  -0.225  0.00  0.00    +0.000 C 
ATOM     27  C34 UNK     0       3.456  -0.136   2.553  0.00  0.00    +0.000 C 
ATOM     28  C35 UNK     0       6.361   1.194   1.838  0.00  0.00    +0.000 C 
ENDROOT
BRANCH  17  29
ATOM     29  O1  UNK     0      -6.208  -0.466   2.316  0.00  0.00    +0.000 OA
ATOM     30  H77 UNK     0      -7.002   0.103   2.138  0.00  0.00    +0.000 HD
ENDBRANCH  17  29
BRANCH  19  31
ATOM     31  O2  UNK     0      -2.899   0.734   2.939  0.00  0.00    +0.000 OA
ATOM     32  H78 UNK     0      -3.261   1.268   3.694  0.00  0.00    +0.000 HD
ENDBRANCH  19  31
BRANCH  14  33
ATOM     33  C33 UNK     0       3.739  -0.884  -2.510  0.00  0.00    +0.000 C 
ATOM     34  O5  UNK     0       3.433  -2.084  -2.271  0.00  0.00    +0.000 OA
BRANCH  33  35
ATOM     35  O4  UNK     0       3.962  -0.493  -3.829  0.00  0.00    +0.000 OA
ATOM     36  H83 UNK     0       3.868  -1.155  -4.590  0.00  0.00    +0.000 HD
ENDBRANCH  33  35
ENDBRANCH  14  33
BRANCH   9  37
ATOM     37  C30 UNK     0      -5.549   1.702  -0.118  0.00  0.00    +0.000 C 
BRANCH  37  38
ATOM     38  O3  UNK     0      -5.846   1.719  -1.490  0.00  0.00    +0.000 OA
ATOM     39  H82 UNK     0      -6.170   2.634  -1.693  0.00  0.00    +0.000 HD
ENDBRANCH  37  38
ENDBRANCH   9  37
TORSDOF 6
