REMARK  Name = C:\Users\Maximilian\Desktop\Conformers\converted_pdb\conformers_pdb\Asiatic Acid_conf_36.pdb
REMARK  12 active torsions:
REMARK  status: ('A' for Active; 'I' for Inactive)
REMARK    1  A    between atoms: C6_1  and  C20_15
REMARK    2  A    between atoms: C8_3  and  C25_20
REMARK    3  A    between atoms: C9_4  and  C26_21
REMARK    4  A    between atoms: C14_9  and  C31_25
REMARK    5  A    between atoms: C14_9  and  C30_29
REMARK    6  A    between atoms: C19_14  and  C33_36
REMARK    7  A    between atoms: C22_17  and  O1_32
REMARK    8  A    between atoms: C24_19  and  O2_34
REMARK    9  A    between atoms: C27_22  and  C34_27
REMARK   10  A    between atoms: C29_24  and  C35_28
REMARK   11  A    between atoms: C30_29  and  O3_30
REMARK   12  A    between atoms: C33_36  and  O4_38
REMARK                            x       y       z     vdW  Elec       q    Type
REMARK                         _______ _______ _______ _____ _____    ______ ____
ROOT
ATOM      1  C6  UNK     0       0.396   0.931   0.388  0.00  0.00    +0.000 C 
ATOM      2  C7  UNK     0       1.110  -0.480   0.332  0.00  0.00    +0.000 C 
ATOM      3  C8  UNK     0       2.697  -0.553   0.553  0.00  0.00    +0.000 C 
ATOM      4  C9  UNK     0      -1.079   0.799  -0.270  0.00  0.00    +0.000 C 
ATOM      5  C10 UNK     0       3.360   0.588  -0.306  0.00  0.00    +0.000 C 
ATOM      6  C11 UNK     0       1.255   1.987  -0.377  0.00  0.00    +0.000 C 
ATOM      7  C12 UNK     0      -1.837  -0.412   0.328  0.00  0.00    +0.000 C 
ATOM      8  C13 UNK     0       2.734   1.971   0.011  0.00  0.00    +0.000 C 
ATOM      9  C14 UNK     0       4.947   0.584  -0.374  0.00  0.00    +0.000 C 
ATOM     10  C15 UNK     0      -3.379  -0.510   0.285  0.00  0.00    +0.000 C 
ATOM     11  C16 UNK     0       0.303  -1.505   1.157  0.00  0.00    +0.000 C 
ATOM     12  C17 UNK     0       3.206  -1.959   0.038  0.00  0.00    +0.000 C 
ATOM     13  C18 UNK     0      -1.908   2.108  -0.029  0.00  0.00    +0.000 C 
ATOM     14  C19 UNK     0      -4.089   0.877   0.511  0.00  0.00    +0.000 C 
ATOM     15  C20 UNK     0       0.261   1.404   1.875  0.00  0.00    +0.000 C 
ATOM     16  C21 UNK     0      -3.401   1.971  -0.346  0.00  0.00    +0.000 C 
ATOM     17  C22 UNK     0       5.515  -0.894  -0.392  0.00  0.00    +0.000 C 
ATOM     18  C23 UNK     0      -1.171  -1.468   0.863  0.00  0.00    +0.000 C 
ATOM     19  C24 UNK     0       4.476  -1.951  -0.838  0.00  0.00    +0.000 C 
ATOM     20  C25 UNK     0       3.106  -0.445   2.057  0.00  0.00    +0.000 C 
ATOM     21  C26 UNK     0      -1.021   0.585  -1.820  0.00  0.00    +0.000 C 
ATOM     22  C27 UNK     0      -3.969  -1.253  -0.961  0.00  0.00    +0.000 C 
ATOM     23  C28 UNK     0      -5.597   0.808   0.087  0.00  0.00    +0.000 C 
ATOM     24  C29 UNK     0      -5.479  -1.602  -0.723  0.00  0.00    +0.000 C 
ATOM     25  C31 UNK     0       5.585   1.391   0.796  0.00  0.00    +0.000 C 
ATOM     26  C32 UNK     0      -6.179  -0.601   0.233  0.00  0.00    +0.000 C 
ATOM     27  C34 UNK     0      -3.182  -2.525  -1.329  0.00  0.00    +0.000 C 
ATOM     28  C35 UNK     0      -6.247  -1.691  -2.054  0.00  0.00    +0.000 C 
ENDROOT
BRANCH  17  29
ATOM     29  O1  UNK     0       6.034  -1.264   0.863  0.00  0.00    +0.000 OA
ATOM     30  H77 UNK     0       6.641  -2.036   0.718  0.00  0.00    +0.000 HD
ENDBRANCH  17  29
BRANCH  19  31
ATOM     31  O2  UNK     0       4.115  -1.763  -2.183  0.00  0.00    +0.000 OA
ATOM     32  H78 UNK     0       4.874  -2.089  -2.735  0.00  0.00    +0.000 HD
ENDBRANCH  19  31
BRANCH  14  33
ATOM     33  C33 UNK     0      -4.018   1.281   1.984  0.00  0.00    +0.000 C 
ATOM     34  O5  UNK     0      -4.571   2.347   2.371  0.00  0.00    +0.000 OA
BRANCH  33  35
ATOM     35  O4  UNK     0      -3.315   0.512   2.910  0.00  0.00    +0.000 OA
ATOM     36  H83 UNK     0      -3.251   0.794   3.880  0.00  0.00    +0.000 HD
ENDBRANCH  33  35
ENDBRANCH  14  33
BRANCH   9  37
ATOM     37  C30 UNK     0       5.426   1.317  -1.674  0.00  0.00    +0.000 C 
BRANCH  37  38
ATOM     38  O3  UNK     0       4.919   0.716  -2.834  0.00  0.00    +0.000 OA
ATOM     39  H82 UNK     0       5.310   1.212  -3.599  0.00  0.00    +0.000 HD
ENDBRANCH  37  38
ENDBRANCH   9  37
TORSDOF 6
