REMARK  Name = C:\Users\Maximilian\Desktop\Conformers\converted_pdb\conformers_pdb\Asiatic Acid_conf_32.pdb
REMARK  12 active torsions:
REMARK  status: ('A' for Active; 'I' for Inactive)
REMARK    1  A    between atoms: C6_1  and  C20_15
REMARK    2  A    between atoms: C8_3  and  C25_20
REMARK    3  A    between atoms: C9_4  and  C26_21
REMARK    4  A    between atoms: C14_9  and  C31_25
REMARK    5  A    between atoms: C14_9  and  C30_29
REMARK    6  A    between atoms: C19_14  and  C33_36
REMARK    7  A    between atoms: C22_17  and  O1_32
REMARK    8  A    between atoms: C24_19  and  O2_34
REMARK    9  A    between atoms: C27_22  and  C34_27
REMARK   10  A    between atoms: C29_24  and  C35_28
REMARK   11  A    between atoms: C30_29  and  O3_30
REMARK   12  A    between atoms: C33_36  and  O4_38
REMARK                            x       y       z     vdW  Elec       q    Type
REMARK                         _______ _______ _______ _____ _____    ______ ____
ROOT
ATOM      1  C6  UNK     0       0.335  -0.825   0.362  0.00  0.00    +0.000 C 
ATOM      2  C7  UNK     0       1.048   0.180  -0.623  0.00  0.00    +0.000 C 
ATOM      3  C8  UNK     0       2.583  -0.086  -0.946  0.00  0.00    +0.000 C 
ATOM      4  C9  UNK     0      -1.068  -0.155   0.801  0.00  0.00    +0.000 C 
ATOM      5  C10 UNK     0       3.332  -0.229   0.437  0.00  0.00    +0.000 C 
ATOM      6  C11 UNK     0       1.240  -1.112   1.607  0.00  0.00    +0.000 C 
ATOM      7  C12 UNK     0      -1.918   0.073  -0.468  0.00  0.00    +0.000 C 
ATOM      8  C13 UNK     0       2.720  -1.378   1.278  0.00  0.00    +0.000 C 
ATOM      9  C14 UNK     0       4.920  -0.196   0.381  0.00  0.00    +0.000 C 
ATOM     10  C15 UNK     0      -3.453   0.113  -0.415  0.00  0.00    +0.000 C 
ATOM     11  C16 UNK     0       0.168   0.497  -1.868  0.00  0.00    +0.000 C 
ATOM     12  C17 UNK     0       3.138   1.180  -1.680  0.00  0.00    +0.000 C 
ATOM     13  C18 UNK     0      -1.812  -1.051   1.861  0.00  0.00    +0.000 C 
ATOM     14  C19 UNK     0      -3.989  -1.020   0.515  0.00  0.00    +0.000 C 
ATOM     15  C20 UNK     0       0.094  -2.199  -0.357  0.00  0.00    +0.000 C 
ATOM     16  C21 UNK     0      -3.337  -0.879   1.915  0.00  0.00    +0.000 C 
ATOM     17  C22 UNK     0       5.349   1.087  -0.414  0.00  0.00    +0.000 C 
ATOM     18  C23 UNK     0      -1.322   0.400  -1.641  0.00  0.00    +0.000 C 
ATOM     19  C24 UNK     0       4.672   1.225  -1.796  0.00  0.00    +0.000 C 
ATOM     20  C25 UNK     0       2.784  -1.331  -1.880  0.00  0.00    +0.000 C 
ATOM     21  C26 UNK     0      -0.894   1.262   1.451  0.00  0.00    +0.000 C 
ATOM     22  C27 UNK     0      -4.002   1.536  -0.036  0.00  0.00    +0.000 C 
ATOM     23  C28 UNK     0      -5.530  -0.940   0.611  0.00  0.00    +0.000 C 
ATOM     24  C29 UNK     0      -5.557   1.536   0.065  0.00  0.00    +0.000 C 
ATOM     25  C31 UNK     0       5.535  -1.470  -0.259  0.00  0.00    +0.000 C 
ATOM     26  C32 UNK     0      -6.045   0.437   1.027  0.00  0.00    +0.000 C 
ATOM     27  C34 UNK     0      -3.520   2.602  -1.050  0.00  0.00    +0.000 C 
ATOM     28  C35 UNK     0      -6.109   2.891   0.555  0.00  0.00    +0.000 C 
ENDROOT
BRANCH  17  29
ATOM     29  O1  UNK     0       6.749   1.184  -0.544  0.00  0.00    +0.000 OA
ATOM     30  H77 UNK     0       7.042   0.541  -1.242  0.00  0.00    +0.000 HD
ENDBRANCH  17  29
BRANCH  19  31
ATOM     31  O2  UNK     0       5.069   2.424  -2.418  0.00  0.00    +0.000 OA
ATOM     32  H78 UNK     0       4.827   3.178  -1.818  0.00  0.00    +0.000 HD
ENDBRANCH  19  31
BRANCH  14  33
ATOM     33  C33 UNK     0      -3.671  -2.400  -0.056  0.00  0.00    +0.000 C 
ATOM     34  O5  UNK     0      -3.371  -2.544  -1.274  0.00  0.00    +0.000 OA
BRANCH  33  35
ATOM     35  O4  UNK     0      -3.772  -3.529   0.756  0.00  0.00    +0.000 OA
ATOM     36  H83 UNK     0      -3.565  -4.450   0.391  0.00  0.00    +0.000 HD
ENDBRANCH  33  35
ENDBRANCH  14  33
BRANCH   9  37
ATOM     37  C30 UNK     0       5.512  -0.040   1.829  0.00  0.00    +0.000 C 
BRANCH  37  38
ATOM     38  O3  UNK     0       5.552  -1.257   2.531  0.00  0.00    +0.000 OA
ATOM     39  H82 UNK     0       6.440  -1.664   2.354  0.00  0.00    +0.000 HD
ENDBRANCH  37  38
ENDBRANCH   9  37
TORSDOF 6
