REMARK  6 active torsions:
REMARK  status: ('A' for Active; 'I' for Inactive)
REMARK    1  A    between atoms: O1_1  and  C22_22 
REMARK    2  A    between atoms: O2_2  and  C24_24 
REMARK    3  A    between atoms: O3_3  and  C30_30 
REMARK    4  A    between atoms: O4_4  and  C33_33 
REMARK    5  A    between atoms: C14_14  and  C30_30 
REMARK    6  A    between atoms: C19_19  and  C33_33 
ROOT
HETATM    1  C6          0       6.957  -0.785   0.415  1.00  0.00    -0.028 C 
HETATM    2  C7          0       5.602  -0.079  -0.141  1.00  0.00     0.007 C 
HETATM    3  C8          0       4.229  -0.748   0.400  1.00  0.00    -0.033 C 
HETATM    4  C9          0       8.193  -0.107  -0.309  1.00  0.00    -0.013 C 
HETATM    5  C10         0       4.301  -2.302  -0.028  1.00  0.00     0.007 C 
HETATM    6  C11         0       6.879  -2.281   0.024  1.00  0.00     0.011 C 
HETATM    7  C12         0       8.209   1.421  -0.071  1.00  0.00    -0.069 C 
HETATM    8  C13         0       5.584  -2.977   0.582  1.00  0.00     0.007 C 
HETATM    9  C14         0       2.990  -3.153   0.341  1.00  0.00     0.010 C 
HETATM   10  C15         0       9.613   2.139   0.165  1.00  0.00     0.038 C 
HETATM   11  C16         0       5.643   1.434   0.212  1.00  0.00     0.033 C 
HETATM   12  C17         0       2.964  -0.146  -0.275  1.00  0.00     0.044 C 
HETATM   13  C18         0       9.583  -0.731   0.088  1.00  0.00     0.016 C 
HETATM   14  C19         0      10.873   1.443  -0.541  1.00  0.00     0.053 C 
HETATM   15  C20         0       7.224  -0.674   1.964  1.00  0.00     0.016 C 
HETATM   16  C21         0      10.557  -0.038  -0.872  1.00  0.00     0.022 C 
HETATM   17  C22         0       1.774  -2.435  -0.325  1.00  0.00     0.157 C 
HETATM   18  C23         0       7.049   2.085   0.136  1.00  0.00    -0.022 C 
HETATM   19  C24         0       1.650  -0.947   0.153  1.00  0.00     0.148 C 
HETATM   20  C25         0       4.075  -0.461   1.942  1.00  0.00     0.016 C 
HETATM   21  C26         0       8.049  -0.341  -1.860  1.00  0.00     0.021 C 
HETATM   22  C27         0       9.624   3.791   0.022  1.00  0.00    -0.005 C 
HETATM   23  C28         0      11.269   2.187  -1.779  1.00  0.00     0.021 C 
HETATM   24  C29         0      11.040   4.293  -0.006  1.00  0.00    -0.014 C 
HETATM   25  C31         0       2.737  -3.334   1.871  1.00  0.00     0.020 C 
HETATM   26  C32         0      11.644   3.707  -1.394  1.00  0.00     0.006 C 
HETATM   27  C34         0       8.820   4.467   1.169  1.00  0.00     0.011 C 
HETATM   28  C35         0      11.131   5.829  -0.079  1.00  0.00     0.010 C 
ENDROOT
BRANCH   9  29
HETATM   29  C30         0       3.125  -4.582  -0.223  1.00  0.00     0.176 C 
BRANCH  29  30
HETATM   30  O3          0       1.944  -5.335   0.078  1.00  0.00    -0.400 OA
HETATM   31  H82         0       2.032  -6.252  -0.281  1.00  0.00     0.209 HD
ENDBRANCH  29  30
ENDBRANCH   9  29
BRANCH  17  32
HETATM   32  O1          0       0.579  -3.157  -0.006  1.00  0.00    -0.392 OA
HETATM   33  H77         0      -0.199  -2.722  -0.431  1.00  0.00     0.210 HD
ENDBRANCH  17  32
BRANCH  19  34
HETATM   34  O2          0       0.517  -0.359  -0.484  1.00  0.00    -0.393 OA
HETATM   35  H78         0       0.421   0.578  -0.187  1.00  0.00     0.210 HD
ENDBRANCH  19  34
BRANCH  14  36
HETATM   36  C33         0      12.058   1.403   0.476  1.00  0.00     0.149 C 
HETATM   37  O5          0      11.864   0.986   1.624  1.00  0.00    -0.649 OA
BRANCH  36  38
HETATM   38  O4          0      13.343   1.818   0.120  1.00  0.00    -0.776 OA
HETATM   39  H83         0      13.947   1.724   0.901  1.00  0.00     0.167 HD
ENDBRANCH  36  38
ENDBRANCH  14  36
TORSDOF 6
