REMARK  Name = C:\Users\Maximilian\Desktop\Conformers\converted_pdb\conformers_pdb\Asiatic Acid_conf_37.pdb
REMARK  12 active torsions:
REMARK  status: ('A' for Active; 'I' for Inactive)
REMARK    1  A    between atoms: C6_1  and  C20_15
REMARK    2  A    between atoms: C8_3  and  C25_20
REMARK    3  A    between atoms: C9_4  and  C26_21
REMARK    4  A    between atoms: C14_9  and  C31_25
REMARK    5  A    between atoms: C14_9  and  C30_29
REMARK    6  A    between atoms: C19_14  and  C33_36
REMARK    7  A    between atoms: C22_17  and  O1_32
REMARK    8  A    between atoms: C24_19  and  O2_34
REMARK    9  A    between atoms: C27_22  and  C34_27
REMARK   10  A    between atoms: C29_24  and  C35_28
REMARK   11  A    between atoms: C30_29  and  O3_30
REMARK   12  A    between atoms: C33_36  and  O4_38
REMARK                            x       y       z     vdW  Elec       q    Type
REMARK                         _______ _______ _______ _____ _____    ______ ____
ROOT
ATOM      1  C6  UNK     0      -0.440   1.033   0.035  0.00  0.00    +0.000 C 
ATOM      2  C7  UNK     0      -1.151  -0.278  -0.506  0.00  0.00    +0.000 C 
ATOM      3  C8  UNK     0      -2.759  -0.277  -0.616  0.00  0.00    +0.000 C 
ATOM      4  C9  UNK     0       1.120   0.695   0.388  0.00  0.00    +0.000 C 
ATOM      5  C10 UNK     0      -3.303   0.088   0.818  0.00  0.00    +0.000 C 
ATOM      6  C11 UNK     0      -1.229   1.541   1.313  0.00  0.00    +0.000 C 
ATOM      7  C12 UNK     0       1.807  -0.161  -0.720  0.00  0.00    +0.000 C 
ATOM      8  C13 UNK     0      -2.774   1.494   1.238  0.00  0.00    +0.000 C 
ATOM      9  C14 UNK     0      -4.838  -0.204   1.136  0.00  0.00    +0.000 C 
ATOM     10  C15 UNK     0       3.359  -0.178  -0.899  0.00  0.00    +0.000 C 
ATOM     11  C16 UNK     0      -0.418  -0.822  -1.756  0.00  0.00    +0.000 C 
ATOM     12  C17 UNK     0      -3.257  -1.717  -0.977  0.00  0.00    +0.000 C 
ATOM     13  C18 UNK     0       2.000   1.985   0.577  0.00  0.00    +0.000 C 
ATOM     14  C19 UNK     0       3.930   1.285  -1.064  0.00  0.00    +0.000 C 
ATOM     15  C20 UNK     0      -0.521   2.172  -1.040  0.00  0.00    +0.000 C 
ATOM     16  C21 UNK     0       2.850   2.354  -0.683  0.00  0.00    +0.000 C 
ATOM     17  C22 UNK     0      -5.234  -1.637   0.632  0.00  0.00    +0.000 C 
ATOM     18  C23 UNK     0       1.076  -0.885  -1.602  0.00  0.00    +0.000 C 
ATOM     19  C24 UNK     0      -4.776  -1.947  -0.812  0.00  0.00    +0.000 C 
ATOM     20  C25 UNK     0      -3.276   0.687  -1.738  0.00  0.00    +0.000 C 
ATOM     21  C26 UNK     0       1.203  -0.107   1.731  0.00  0.00    +0.000 C 
ATOM     22  C27 UNK     0       4.123  -1.063   0.156  0.00  0.00    +0.000 C 
ATOM     23  C28 UNK     0       5.198   1.477  -0.183  0.00  0.00    +0.000 C 
ATOM     24  C29 UNK     0       5.683  -1.026   0.025  0.00  0.00    +0.000 C 
ATOM     25  C31 UNK     0      -5.770   0.878   0.519  0.00  0.00    +0.000 C 
ATOM     26  C32 UNK     0       6.220   0.355  -0.431  0.00  0.00    +0.000 C 
ATOM     27  C34 UNK     0       3.598  -2.527   0.125  0.00  0.00    +0.000 C 
ATOM     28  C35 UNK     0       6.367  -1.430   1.363  0.00  0.00    +0.000 C 
ENDROOT
BRANCH  17  29
ATOM     29  O1  UNK     0      -6.628  -1.817   0.760  0.00  0.00    +0.000 OA
ATOM     30  H77 UNK     0      -6.881  -2.658   0.315  0.00  0.00    +0.000 HD
ENDBRANCH  17  29
BRANCH  19  31
ATOM     31  O2  UNK     0      -5.034  -3.304  -1.082  0.00  0.00    +0.000 OA
ATOM     32  H78 UNK     0      -5.187  -3.395  -2.066  0.00  0.00    +0.000 HD
ENDBRANCH  19  31
BRANCH  14  33
ATOM     33  C33 UNK     0       4.362   1.590  -2.521  0.00  0.00    +0.000 C 
ATOM     34  O5  UNK     0       4.926   2.687  -2.773  0.00  0.00    +0.000 OA
BRANCH  33  35
ATOM     35  O4  UNK     0       4.276   0.611  -3.521  0.00  0.00    +0.000 OA
ATOM     36  H83 UNK     0       4.680   0.751  -4.439  0.00  0.00    +0.000 HD
ENDBRANCH  33  35
ENDBRANCH  14  33
BRANCH   9  37
ATOM     37  C30 UNK     0      -5.045  -0.189   2.700  0.00  0.00    +0.000 C 
BRANCH  37  38
ATOM     38  O3  UNK     0      -6.360  -0.546   3.073  0.00  0.00    +0.000 OA
ATOM     39  H82 UNK     0      -6.335  -1.462   3.459  0.00  0.00    +0.000 HD
ENDBRANCH  37  38
ENDBRANCH   9  37
TORSDOF 6
