REMARK  Name = C:\Users\Maximilian\Desktop\Conformers\converted_pdb\conformers_pdb\Asiatic Acid_conf_55.pdb
REMARK  12 active torsions:
REMARK  status: ('A' for Active; 'I' for Inactive)
REMARK    1  A    between atoms: C6_1  and  C20_15
REMARK    2  A    between atoms: C8_3  and  C25_20
REMARK    3  A    between atoms: C9_4  and  C26_21
REMARK    4  A    between atoms: C14_9  and  C31_25
REMARK    5  A    between atoms: C14_9  and  C30_29
REMARK    6  A    between atoms: C19_14  and  C33_36
REMARK    7  A    between atoms: C22_17  and  O1_32
REMARK    8  A    between atoms: C24_19  and  O2_34
REMARK    9  A    between atoms: C27_22  and  C34_27
REMARK   10  A    between atoms: C29_24  and  C35_28
REMARK   11  A    between atoms: C30_29  and  O3_30
REMARK   12  A    between atoms: C33_36  and  O4_38
REMARK                            x       y       z     vdW  Elec       q    Type
REMARK                         _______ _______ _______ _____ _____    ______ ____
ROOT
ATOM      1  C6  UNK     0      -0.311   0.071   0.841  0.00  0.00    +0.000 C 
ATOM      2  C7  UNK     0      -1.120   0.336  -0.484  0.00  0.00    +0.000 C 
ATOM      3  C8  UNK     0      -2.632   0.809  -0.325  0.00  0.00    +0.000 C 
ATOM      4  C9  UNK     0       1.079  -0.642   0.435  0.00  0.00    +0.000 C 
ATOM      5  C10 UNK     0      -3.355  -0.200   0.635  0.00  0.00    +0.000 C 
ATOM      6  C11 UNK     0      -1.158  -0.830   1.795  0.00  0.00    +0.000 C 
ATOM      7  C12 UNK     0       1.868   0.332  -0.464  0.00  0.00    +0.000 C 
ATOM      8  C13 UNK     0      -2.607  -0.357   1.984  0.00  0.00    +0.000 C 
ATOM      9  C14 UNK     0      -4.936  -0.034   0.768  0.00  0.00    +0.000 C 
ATOM     10  C15 UNK     0       3.405   0.357  -0.490  0.00  0.00    +0.000 C 
ATOM     11  C16 UNK     0      -0.296   1.145  -1.533  0.00  0.00    +0.000 C 
ATOM     12  C17 UNK     0      -3.324   0.669  -1.717  0.00  0.00    +0.000 C 
ATOM     13  C18 UNK     0       1.878  -1.079   1.719  0.00  0.00    +0.000 C 
ATOM     14  C19 UNK     0       3.974   0.169   0.951  0.00  0.00    +0.000 C 
ATOM     15  C20 UNK     0      -0.033   1.426   1.587  0.00  0.00    +0.000 C 
ATOM     16  C21 UNK     0       3.402  -1.139   1.554  0.00  0.00    +0.000 C 
ATOM     17  C22 UNK     0      -5.562   0.888  -0.350  0.00  0.00    +0.000 C 
ATOM     18  C23 UNK     0       1.205   1.126  -1.343  0.00  0.00    +0.000 C 
ATOM     19  C24 UNK     0      -4.866   0.842  -1.738  0.00  0.00    +0.000 C 
ATOM     20  C25 UNK     0      -2.734   2.294   0.154  0.00  0.00    +0.000 C 
ATOM     21  C26 UNK     0       0.885  -1.938  -0.421  0.00  0.00    +0.000 C 
ATOM     22  C27 UNK     0       4.007  -0.658  -1.530  0.00  0.00    +0.000 C 
ATOM     23  C28 UNK     0       5.523   0.126   0.916  0.00  0.00    +0.000 C 
ATOM     24  C29 UNK     0       5.566  -0.627  -1.500  0.00  0.00    +0.000 C 
ATOM     25  C31 UNK     0      -5.358   0.541   2.156  0.00  0.00    +0.000 C 
ATOM     26  C32 UNK     0       6.080  -0.893  -0.077  0.00  0.00    +0.000 C 
ATOM     27  C34 UNK     0       3.483  -0.376  -2.956  0.00  0.00    +0.000 C 
ATOM     28  C35 UNK     0       6.200  -1.662  -2.452  0.00  0.00    +0.000 C 
ENDROOT
BRANCH  17  29
ATOM     29  O1  UNK     0      -5.627   2.228   0.086  0.00  0.00    +0.000 OA
ATOM     30  H77 UNK     0      -6.395   2.659  -0.371  0.00  0.00    +0.000 HD
ENDBRANCH  17  29
BRANCH  19  31
ATOM     31  O2  UNK     0      -5.452  -0.169  -2.520  0.00  0.00    +0.000 OA
ATOM     32  H78 UNK     0      -5.207   0.013  -3.465  0.00  0.00    +0.000 HD
ENDBRANCH  19  31
BRANCH  14  33
ATOM     33  C33 UNK     0       3.609   1.345   1.853  0.00  0.00    +0.000 C 
ATOM     34  O5  UNK     0       3.192   2.433   1.370  0.00  0.00    +0.000 OA
BRANCH  33  35
ATOM     35  O4  UNK     0       3.799   1.244   3.230  0.00  0.00    +0.000 OA
ATOM     36  H83 UNK     0       3.584   2.021   3.843  0.00  0.00    +0.000 HD
ENDBRANCH  33  35
ENDBRANCH  14  33
BRANCH   9  37
ATOM     37  C30 UNK     0      -5.599  -1.447   0.693  0.00  0.00    +0.000 C 
BRANCH  37  38
ATOM     38  O3  UNK     0      -5.380  -2.052  -0.553  0.00  0.00    +0.000 OA
ATOM     39  H82 UNK     0      -5.833  -2.933  -0.516  0.00  0.00    +0.000 HD
ENDBRANCH  37  38
ENDBRANCH   9  37
TORSDOF 6
