REMARK  Name = C:\Users\Maximilian\Desktop\Conformers\converted_pdb\conformers_pdb\Asiatic Acid_conf_27.pdb
REMARK  12 active torsions:
REMARK  status: ('A' for Active; 'I' for Inactive)
REMARK    1  A    between atoms: C6_1  and  C20_15
REMARK    2  A    between atoms: C8_3  and  C25_20
REMARK    3  A    between atoms: C9_4  and  C26_21
REMARK    4  A    between atoms: C14_9  and  C31_25
REMARK    5  A    between atoms: C14_9  and  C30_29
REMARK    6  A    between atoms: C19_14  and  C33_36
REMARK    7  A    between atoms: C22_17  and  O1_32
REMARK    8  A    between atoms: C24_19  and  O2_34
REMARK    9  A    between atoms: C27_22  and  C34_27
REMARK   10  A    between atoms: C29_24  and  C35_28
REMARK   11  A    between atoms: C30_29  and  O3_30
REMARK   12  A    between atoms: C33_36  and  O4_38
REMARK                            x       y       z     vdW  Elec       q    Type
REMARK                         _______ _______ _______ _____ _____    ______ ____
ROOT
ATOM      1  C6  UNK     0      -0.431   0.025  -0.977  0.00  0.00    +0.000 C 
ATOM      2  C7  UNK     0      -1.136  -0.469   0.352  0.00  0.00    +0.000 C 
ATOM      3  C8  UNK     0      -2.725  -0.672   0.323  0.00  0.00    +0.000 C 
ATOM      4  C9  UNK     0       1.077   0.511  -0.628  0.00  0.00    +0.000 C 
ATOM      5  C10 UNK     0      -3.346   0.635  -0.301  0.00  0.00    +0.000 C 
ATOM      6  C11 UNK     0      -1.257   1.193  -1.609  0.00  0.00    +0.000 C 
ATOM      7  C12 UNK     0       1.823  -0.576   0.178  0.00  0.00    +0.000 C 
ATOM      8  C13 UNK     0      -2.760   0.912  -1.710  0.00  0.00    +0.000 C 
ATOM      9  C14 UNK     0      -4.916   0.804  -0.175  0.00  0.00    +0.000 C 
ATOM     10  C15 UNK     0       3.366  -0.654   0.214  0.00  0.00    +0.000 C 
ATOM     11  C16 UNK     0      -0.344  -1.632   0.996  0.00  0.00    +0.000 C 
ATOM     12  C17 UNK     0      -3.233  -0.783   1.800  0.00  0.00    +0.000 C 
ATOM     13  C18 UNK     0       1.869   0.835  -1.941  0.00  0.00    +0.000 C 
ATOM     14  C19 UNK     0       4.029  -0.300  -1.169  0.00  0.00    +0.000 C 
ATOM     15  C20 UNK     0      -0.383  -1.140  -2.021  0.00  0.00    +0.000 C 
ATOM     16  C21 UNK     0       3.382   0.985  -1.745  0.00  0.00    +0.000 C 
ATOM     17  C22 UNK     0      -5.309   0.622   1.332  0.00  0.00    +0.000 C 
ATOM     18  C23 UNK     0       1.148  -1.457   0.958  0.00  0.00    +0.000 C 
ATOM     19  C24 UNK     0      -4.765  -0.673   1.969  0.00  0.00    +0.000 C 
ATOM     20  C25 UNK     0      -3.159  -1.974  -0.437  0.00  0.00    +0.000 C 
ATOM     21  C26 UNK     0       1.101   1.812   0.242  0.00  0.00    +0.000 C 
ATOM     22  C27 UNK     0       4.049   0.134   1.383  0.00  0.00    +0.000 C 
ATOM     23  C28 UNK     0       5.565  -0.035  -1.007  0.00  0.00    +0.000 C 
ATOM     24  C29 UNK     0       5.551  -0.293   1.526  0.00  0.00    +0.000 C 
ATOM     25  C31 UNK     0      -5.697  -0.183  -1.084  0.00  0.00    +0.000 C 
ATOM     26  C32 UNK     0       6.163  -0.782   0.188  0.00  0.00    +0.000 C 
ATOM     27  C34 UNK     0       3.321  -0.035   2.730  0.00  0.00    +0.000 C 
ATOM     28  C35 UNK     0       6.400   0.848   2.115  0.00  0.00    +0.000 C 
ENDROOT
BRANCH  17  29
ATOM     29  O1  UNK     0      -6.701   0.730   1.525  0.00  0.00    +0.000 OA
ATOM     30  H77 UNK     0      -7.123  -0.113   1.215  0.00  0.00    +0.000 HD
ENDBRANCH  17  29
BRANCH  19  31
ATOM     31  O2  UNK     0      -5.076  -0.661   3.339  0.00  0.00    +0.000 OA
ATOM     32  H78 UNK     0      -4.955  -1.590   3.672  0.00  0.00    +0.000 HD
ENDBRANCH  19  31
BRANCH  14  33
ATOM     33  C33 UNK     0       3.850  -1.439  -2.172  0.00  0.00    +0.000 C 
ATOM     34  O5  UNK     0       3.307  -2.529  -1.841  0.00  0.00    +0.000 OA
BRANCH  33  35
ATOM     35  O4  UNK     0       4.289  -1.276  -3.484  0.00  0.00    +0.000 OA
ATOM     36  H83 UNK     0       4.176  -2.016  -4.167  0.00  0.00    +0.000 HD
ENDBRANCH  33  35
ENDBRANCH  14  33
BRANCH   9  37
ATOM     37  C30 UNK     0      -5.359   2.242  -0.610  0.00  0.00    +0.000 C 
BRANCH  37  38
ATOM     38  O3  UNK     0      -4.574   3.244  -0.014  0.00  0.00    +0.000 OA
ATOM     39  H82 UNK     0      -5.055   3.547   0.799  0.00  0.00    +0.000 HD
ENDBRANCH  37  38
ENDBRANCH   9  37
TORSDOF 6
