REMARK  Name = C:\Users\Maximilian\Desktop\Conformers\converted_pdb\conformers_pdb\Asiatic Acid_conf_2.pdb
REMARK  12 active torsions:
REMARK  status: ('A' for Active; 'I' for Inactive)
REMARK    1  A    between atoms: C6_1  and  C20_15
REMARK    2  A    between atoms: C8_3  and  C25_20
REMARK    3  A    between atoms: C9_4  and  C26_21
REMARK    4  A    between atoms: C14_9  and  C31_25
REMARK    5  A    between atoms: C14_9  and  C30_29
REMARK    6  A    between atoms: C19_14  and  C33_36
REMARK    7  A    between atoms: C22_17  and  O1_32
REMARK    8  A    between atoms: C24_19  and  O2_34
REMARK    9  A    between atoms: C27_22  and  C34_27
REMARK   10  A    between atoms: C29_24  and  C35_28
REMARK   11  A    between atoms: C30_29  and  O3_30
REMARK   12  A    between atoms: C33_36  and  O4_38
REMARK                            x       y       z     vdW  Elec       q    Type
REMARK                         _______ _______ _______ _____ _____    ______ ____
ROOT
ATOM      1  C6  UNK     0       0.370   0.237  -0.780  0.00  0.00    +0.000 C 
ATOM      2  C7  UNK     0       1.110   0.274   0.606  0.00  0.00    +0.000 C 
ATOM      3  C8  UNK     0       2.639   0.718   0.597  0.00  0.00    +0.000 C 
ATOM      4  C9  UNK     0      -1.054  -0.489  -0.558  0.00  0.00    +0.000 C 
ATOM      5  C10 UNK     0       3.387  -0.168  -0.473  0.00  0.00    +0.000 C 
ATOM      6  C11 UNK     0       1.246  -0.540  -1.818  0.00  0.00    +0.000 C 
ATOM      7  C12 UNK     0      -1.898   0.381   0.387  0.00  0.00    +0.000 C 
ATOM      8  C13 UNK     0       2.710  -0.086  -1.865  0.00  0.00    +0.000 C 
ATOM      9  C14 UNK     0       4.977  -0.048  -0.506  0.00  0.00    +0.000 C 
ATOM     10  C15 UNK     0      -3.447   0.412   0.353  0.00  0.00    +0.000 C 
ATOM     11  C16 UNK     0       0.216   0.940   1.704  0.00  0.00    +0.000 C 
ATOM     12  C17 UNK     0       3.243   0.436   2.028  0.00  0.00    +0.000 C 
ATOM     13  C18 UNK     0      -1.748  -0.698  -1.937  0.00  0.00    +0.000 C 
ATOM     14  C19 UNK     0      -4.063   0.102  -1.087  0.00  0.00    +0.000 C 
ATOM     15  C20 UNK     0       0.142   1.708  -1.315  0.00  0.00    +0.000 C 
ATOM     16  C21 UNK     0      -3.241  -0.982  -1.841  0.00  0.00    +0.000 C 
ATOM     17  C22 UNK     0       5.554   0.221   0.945  0.00  0.00    +0.000 C 
ATOM     18  C23 UNK     0      -1.257   1.081   1.361  0.00  0.00    +0.000 C 
ATOM     19  C24 UNK     0       4.617  -0.272   2.060  0.00  0.00    +0.000 C 
ATOM     20  C25 UNK     0       2.796   2.243   0.286  0.00  0.00    +0.000 C 
ATOM     21  C26 UNK     0      -0.949  -1.889   0.132  0.00  0.00    +0.000 C 
ATOM     22  C27 UNK     0      -4.059  -0.355   1.613  0.00  0.00    +0.000 C 
ATOM     23  C28 UNK     0      -5.555  -0.404  -1.069  0.00  0.00    +0.000 C 
ATOM     24  C29 UNK     0      -5.402  -1.099   1.349  0.00  0.00    +0.000 C 
ATOM     25  C31 UNK     0       5.460   1.050  -1.501  0.00  0.00    +0.000 C 
ATOM     26  C32 UNK     0      -6.230  -0.369   0.288  0.00  0.00    +0.000 C 
ATOM     27  C34 UNK     0      -4.313   0.617   2.809  0.00  0.00    +0.000 C 
ATOM     28  C35 UNK     0      -5.208  -2.604   1.072  0.00  0.00    +0.000 C 
ENDROOT
BRANCH  17  29
ATOM     29  O1  UNK     0       5.796   1.586   1.167  0.00  0.00    +0.000 OA
ATOM     30  H77 UNK     0       6.715   1.802   0.880  0.00  0.00    +0.000 HD
ENDBRANCH  17  29
BRANCH  19  31
ATOM     31  O2  UNK     0       4.431  -1.665   1.984  0.00  0.00    +0.000 OA
ATOM     32  H78 UNK     0       5.281  -2.092   2.278  0.00  0.00    +0.000 HD
ENDBRANCH  19  31
BRANCH  14  33
ATOM     33  C33 UNK     0      -4.077   1.406  -1.898  0.00  0.00    +0.000 C 
ATOM     34  O5  UNK     0      -3.627   1.455  -3.073  0.00  0.00    +0.000 OA
BRANCH  33  35
ATOM     35  O4  UNK     0      -4.704   2.536  -1.378  0.00  0.00    +0.000 OA
ATOM     36  H83 UNK     0      -4.786   3.387  -1.925  0.00  0.00    +0.000 HD
ENDBRANCH  33  35
ENDBRANCH  14  33
BRANCH   9  37
ATOM     37  C30 UNK     0       5.567  -1.400  -1.034  0.00  0.00    +0.000 C 
BRANCH  37  38
ATOM     38  O3  UNK     0       6.974  -1.371  -1.058  0.00  0.00    +0.000 OA
ATOM     39  H82 UNK     0       7.268  -1.719  -1.944  0.00  0.00    +0.000 HD
ENDBRANCH  37  38
ENDBRANCH   9  37
TORSDOF 6
