REMARK  Name = C:\Users\Maximilian\Desktop\Conformers\converted_pdb\conformers_pdb\Asiatic Acid_conf_52.pdb
REMARK  12 active torsions:
REMARK  status: ('A' for Active; 'I' for Inactive)
REMARK    1  A    between atoms: C6_1  and  C20_15
REMARK    2  A    between atoms: C8_3  and  C25_20
REMARK    3  A    between atoms: C9_4  and  C26_21
REMARK    4  A    between atoms: C14_9  and  C31_25
REMARK    5  A    between atoms: C14_9  and  C30_29
REMARK    6  A    between atoms: C19_14  and  C33_36
REMARK    7  A    between atoms: C22_17  and  O1_32
REMARK    8  A    between atoms: C24_19  and  O2_34
REMARK    9  A    between atoms: C27_22  and  C34_27
REMARK   10  A    between atoms: C29_24  and  C35_28
REMARK   11  A    between atoms: C30_29  and  O3_30
REMARK   12  A    between atoms: C33_36  and  O4_38
REMARK                            x       y       z     vdW  Elec       q    Type
REMARK                         _______ _______ _______ _____ _____    ______ ____
ROOT
ATOM      1  C6  UNK     0       0.315  -0.232   0.760  0.00  0.00    +0.000 C 
ATOM      2  C7  UNK     0       1.109  -0.121  -0.596  0.00  0.00    +0.000 C 
ATOM      3  C8  UNK     0       2.669  -0.426  -0.539  0.00  0.00    +0.000 C 
ATOM      4  C9  UNK     0      -1.150   0.400   0.521  0.00  0.00    +0.000 C 
ATOM      5  C10 UNK     0       3.280   0.494   0.590  0.00  0.00    +0.000 C 
ATOM      6  C11 UNK     0       1.082   0.527   1.892  0.00  0.00    +0.000 C 
ATOM      7  C12 UNK     0      -1.861  -0.442  -0.558  0.00  0.00    +0.000 C 
ATOM      8  C13 UNK     0       2.589   0.231   1.956  0.00  0.00    +0.000 C 
ATOM      9  C14 UNK     0       4.865   0.597   0.636  0.00  0.00    +0.000 C 
ATOM     10  C15 UNK     0      -3.387  -0.623  -0.578  0.00  0.00    +0.000 C 
ATOM     11  C16 UNK     0       0.350  -0.799  -1.780  0.00  0.00    +0.000 C 
ATOM     12  C17 UNK     0       3.289   0.007  -1.905  0.00  0.00    +0.000 C 
ATOM     13  C18 UNK     0      -1.949   0.476   1.875  0.00  0.00    +0.000 C 
ATOM     14  C19 UNK     0      -3.923  -0.813   0.875  0.00  0.00    +0.000 C 
ATOM     15  C20 UNK     0       0.197  -1.738   1.192  0.00  0.00    +0.000 C 
ATOM     16  C21 UNK     0      -3.475   0.394   1.742  0.00  0.00    +0.000 C 
ATOM     17  C22 UNK     0       5.373   0.967  -0.804  0.00  0.00    +0.000 C 
ATOM     18  C23 UNK     0      -1.146  -0.953  -1.593  0.00  0.00    +0.000 C 
ATOM     19  C24 UNK     0       4.828   0.050  -1.918  0.00  0.00    +0.000 C 
ATOM     20  C25 UNK     0       2.959  -1.950  -0.313  0.00  0.00    +0.000 C 
ATOM     21  C26 UNK     0      -1.115   1.858  -0.050  0.00  0.00    +0.000 C 
ATOM     22  C27 UNK     0      -4.124   0.522  -1.365  0.00  0.00    +0.000 C 
ATOM     23  C28 UNK     0      -5.467  -0.936   0.866  0.00  0.00    +0.000 C 
ATOM     24  C29 UNK     0      -5.669   0.308  -1.327  0.00  0.00    +0.000 C 
ATOM     25  C31 UNK     0       5.532  -0.704   1.155  0.00  0.00    +0.000 C 
ATOM     26  C32 UNK     0      -6.163   0.203   0.124  0.00  0.00    +0.000 C 
ATOM     27  C34 UNK     0      -3.625   0.613  -2.825  0.00  0.00    +0.000 C 
ATOM     28  C35 UNK     0      -6.446   1.437  -2.031  0.00  0.00    +0.000 C 
ENDROOT
BRANCH  17  29
ATOM     29  O1  UNK     0       6.779   1.025  -0.874  0.00  0.00    +0.000 OA
ATOM     30  H77 UNK     0       7.131   0.097  -0.865  0.00  0.00    +0.000 HD
ENDBRANCH  17  29
BRANCH  19  31
ATOM     31  O2  UNK     0       5.263   0.547  -3.159  0.00  0.00    +0.000 OA
ATOM     32  H78 UNK     0       5.151  -0.186  -3.820  0.00  0.00    +0.000 HD
ENDBRANCH  19  31
BRANCH  14  33
ATOM     33  C33 UNK     0      -3.399  -2.111   1.484  0.00  0.00    +0.000 C 
ATOM     34  O5  UNK     0      -3.464  -2.296   2.730  0.00  0.00    +0.000 OA
BRANCH  33  35
ATOM     35  O4  UNK     0      -2.926  -3.140   0.671  0.00  0.00    +0.000 OA
ATOM     36  H83 UNK     0      -2.593  -4.007   1.073  0.00  0.00    +0.000 HD
ENDBRANCH  33  35
ENDBRANCH  14  33
BRANCH   9  37
ATOM     37  C30 UNK     0       5.274   1.754   1.613  0.00  0.00    +0.000 C 
BRANCH  37  38
ATOM     38  O3  UNK     0       6.651   2.031   1.561  0.00  0.00    +0.000 OA
ATOM     39  H82 UNK     0       6.763   2.883   1.064  0.00  0.00    +0.000 HD
ENDBRANCH  37  38
ENDBRANCH   9  37
TORSDOF 6
