REMARK  Name = C:\Users\Maximilian\Desktop\Conformers\converted_pdb\conformers_pdb\Asiatic Acid_conf_4.pdb
REMARK  12 active torsions:
REMARK  status: ('A' for Active; 'I' for Inactive)
REMARK    1  A    between atoms: C6_1  and  C20_15
REMARK    2  A    between atoms: C8_3  and  C25_20
REMARK    3  A    between atoms: C9_4  and  C26_21
REMARK    4  A    between atoms: C14_9  and  C31_25
REMARK    5  A    between atoms: C14_9  and  C30_29
REMARK    6  A    between atoms: C19_14  and  C33_36
REMARK    7  A    between atoms: C22_17  and  O1_32
REMARK    8  A    between atoms: C24_19  and  O2_34
REMARK    9  A    between atoms: C27_22  and  C34_27
REMARK   10  A    between atoms: C29_24  and  C35_28
REMARK   11  A    between atoms: C30_29  and  O3_30
REMARK   12  A    between atoms: C33_36  and  O4_38
REMARK                            x       y       z     vdW  Elec       q    Type
REMARK                         _______ _______ _______ _____ _____    ______ ____
ROOT
ATOM      1  C6  UNK     0       0.398  -0.794   0.517  0.00  0.00    +0.000 C 
ATOM      2  C7  UNK     0       1.124   0.164  -0.508  0.00  0.00    +0.000 C 
ATOM      3  C8  UNK     0       2.684  -0.069  -0.747  0.00  0.00    +0.000 C 
ATOM      4  C9  UNK     0      -1.087  -0.212   0.810  0.00  0.00    +0.000 C 
ATOM      5  C10 UNK     0       3.378  -0.060   0.666  0.00  0.00    +0.000 C 
ATOM      6  C11 UNK     0       1.265  -0.881   1.823  0.00  0.00    +0.000 C 
ATOM      7  C12 UNK     0      -1.850  -0.017  -0.520  0.00  0.00    +0.000 C 
ATOM      8  C13 UNK     0       2.760  -1.145   1.586  0.00  0.00    +0.000 C 
ATOM      9  C14 UNK     0       4.964   0.026   0.679  0.00  0.00    +0.000 C 
ATOM     10  C15 UNK     0      -3.394  -0.079  -0.603  0.00  0.00    +0.000 C 
ATOM     11  C16 UNK     0       0.310   0.364  -1.814  0.00  0.00    +0.000 C 
ATOM     12  C17 UNK     0       3.237   1.147  -1.555  0.00  0.00    +0.000 C 
ATOM     13  C18 UNK     0      -1.895  -1.161   1.773  0.00  0.00    +0.000 C 
ATOM     14  C19 UNK     0      -4.046  -1.155   0.364  0.00  0.00    +0.000 C 
ATOM     15  C20 UNK     0       0.274  -2.239  -0.063  0.00  0.00    +0.000 C 
ATOM     16  C21 UNK     0      -2.964  -2.007   1.069  0.00  0.00    +0.000 C 
ATOM     17  C22 UNK     0       5.407   1.231  -0.223  0.00  0.00    +0.000 C 
ATOM     18  C23 UNK     0      -1.180   0.246  -1.668  0.00  0.00    +0.000 C 
ATOM     19  C24 UNK     0       4.774   1.218  -1.626  0.00  0.00    +0.000 C 
ATOM     20  C25 UNK     0       2.965  -1.380  -1.562  0.00  0.00    +0.000 C 
ATOM     21  C26 UNK     0      -1.065   1.196   1.485  0.00  0.00    +0.000 C 
ATOM     22  C27 UNK     0      -4.077   1.337  -0.513  0.00  0.00    +0.000 C 
ATOM     23  C28 UNK     0      -4.933  -0.456   1.440  0.00  0.00    +0.000 C 
ATOM     24  C29 UNK     0      -5.625   1.153  -0.457  0.00  0.00    +0.000 C 
ATOM     25  C31 UNK     0       5.640  -1.291   0.214  0.00  0.00    +0.000 C 
ATOM     26  C32 UNK     0      -6.049   0.412   0.835  0.00  0.00    +0.000 C 
ATOM     27  C34 UNK     0      -3.648   2.258  -1.675  0.00  0.00    +0.000 C 
ATOM     28  C35 UNK     0      -6.415   2.470  -0.568  0.00  0.00    +0.000 C 
ENDROOT
BRANCH  17  29
ATOM     29  O1  UNK     0       6.808   1.249  -0.365  0.00  0.00    +0.000 OA
ATOM     30  H77 UNK     0       7.079   2.193  -0.507  0.00  0.00    +0.000 HD
ENDBRANCH  17  29
BRANCH  19  31
ATOM     31  O2  UNK     0       5.144   2.396  -2.298  0.00  0.00    +0.000 OA
ATOM     32  H78 UNK     0       4.970   2.245  -3.265  0.00  0.00    +0.000 HD
ENDBRANCH  19  31
BRANCH  14  33
ATOM     33  C33 UNK     0      -4.893  -2.151  -0.434  0.00  0.00    +0.000 C 
ATOM     34  O5  UNK     0      -5.995  -2.572   0.014  0.00  0.00    +0.000 OA
BRANCH  33  35
ATOM     35  O4  UNK     0      -4.398  -2.693  -1.619  0.00  0.00    +0.000 OA
ATOM     36  H83 UNK     0      -4.931  -3.380  -2.139  0.00  0.00    +0.000 HD
ENDBRANCH  33  35
ENDBRANCH  14  33
BRANCH   9  37
ATOM     37  C30 UNK     0       5.445   0.311   2.146  0.00  0.00    +0.000 C 
BRANCH  37  38
ATOM     38  O3  UNK     0       6.793   0.703   2.204  0.00  0.00    +0.000 OA
ATOM     39  H82 UNK     0       7.334  -0.115   2.357  0.00  0.00    +0.000 HD
ENDBRANCH  37  38
ENDBRANCH   9  37
TORSDOF 6
