REMARK  Name = C:\Users\Maximilian\Desktop\Conformers\converted_pdb\conformers_pdb\Asiatic Acid_conf_18.pdb
REMARK  12 active torsions:
REMARK  status: ('A' for Active; 'I' for Inactive)
REMARK    1  A    between atoms: C6_1  and  C20_15
REMARK    2  A    between atoms: C8_3  and  C25_20
REMARK    3  A    between atoms: C9_4  and  C26_21
REMARK    4  A    between atoms: C14_9  and  C31_25
REMARK    5  A    between atoms: C14_9  and  C30_29
REMARK    6  A    between atoms: C19_14  and  C33_36
REMARK    7  A    between atoms: C22_17  and  O1_32
REMARK    8  A    between atoms: C24_19  and  O2_34
REMARK    9  A    between atoms: C27_22  and  C34_27
REMARK   10  A    between atoms: C29_24  and  C35_28
REMARK   11  A    between atoms: C30_29  and  O3_30
REMARK   12  A    between atoms: C33_36  and  O4_38
REMARK                            x       y       z     vdW  Elec       q    Type
REMARK                         _______ _______ _______ _____ _____    ______ ____
ROOT
ATOM      1  C6  UNK     0       0.396  -0.915  -0.263  0.00  0.00    +0.000 C 
ATOM      2  C7  UNK     0       1.167   0.464  -0.300  0.00  0.00    +0.000 C 
ATOM      3  C8  UNK     0       2.732   0.423  -0.613  0.00  0.00    +0.000 C 
ATOM      4  C9  UNK     0      -1.088  -0.663   0.343  0.00  0.00    +0.000 C 
ATOM      5  C10 UNK     0       3.383  -0.595   0.401  0.00  0.00    +0.000 C 
ATOM      6  C11 UNK     0       1.223  -1.928   0.607  0.00  0.00    +0.000 C 
ATOM      7  C12 UNK     0      -1.806   0.442  -0.464  0.00  0.00    +0.000 C 
ATOM      8  C13 UNK     0       2.721  -1.992   0.272  0.00  0.00    +0.000 C 
ATOM      9  C14 UNK     0       4.970  -0.594   0.491  0.00  0.00    +0.000 C 
ATOM     10  C15 UNK     0      -3.346   0.506  -0.579  0.00  0.00    +0.000 C 
ATOM     11  C16 UNK     0       0.397   1.554  -1.089  0.00  0.00    +0.000 C 
ATOM     12  C17 UNK     0       3.319   1.842  -0.318  0.00  0.00    +0.000 C 
ATOM     13  C18 UNK     0      -1.948  -1.981   0.339  0.00  0.00    +0.000 C 
ATOM     14  C19 UNK     0      -4.034  -0.916  -0.736  0.00  0.00    +0.000 C 
ATOM     15  C20 UNK     0       0.268  -1.521  -1.695  0.00  0.00    +0.000 C 
ATOM     16  C21 UNK     0      -2.982  -2.052  -0.794  0.00  0.00    +0.000 C 
ATOM     17  C22 UNK     0       5.448   0.886   0.722  0.00  0.00    +0.000 C 
ATOM     18  C23 UNK     0      -1.099   1.428  -1.068  0.00  0.00    +0.000 C 
ATOM     19  C24 UNK     0       4.858   1.898  -0.286  0.00  0.00    +0.000 C 
ATOM     20  C25 UNK     0       3.025   0.064  -2.112  0.00  0.00    +0.000 C 
ATOM     21  C26 UNK     0      -1.058  -0.149   1.818  0.00  0.00    +0.000 C 
ATOM     22  C27 UNK     0      -4.016   1.407   0.523  0.00  0.00    +0.000 C 
ATOM     23  C28 UNK     0      -5.012  -1.188   0.448  0.00  0.00    +0.000 C 
ATOM     24  C29 UNK     0      -5.565   1.336   0.360  0.00  0.00    +0.000 C 
ATOM     25  C31 UNK     0       5.638  -1.221  -0.761  0.00  0.00    +0.000 C 
ATOM     26  C32 UNK     0      -6.087  -0.101   0.615  0.00  0.00    +0.000 C 
ATOM     27  C34 UNK     0      -3.496   2.860   0.469  0.00  0.00    +0.000 C 
ATOM     28  C35 UNK     0      -6.330   2.323   1.260  0.00  0.00    +0.000 C 
ENDROOT
BRANCH  17  29
ATOM     29  O1  UNK     0       6.852   0.994   0.751  0.00  0.00    +0.000 OA
ATOM     30  H77 UNK     0       7.192   0.902  -0.176  0.00  0.00    +0.000 HD
ENDBRANCH  17  29
BRANCH  19  31
ATOM     31  O2  UNK     0       5.284   3.203   0.023  0.00  0.00    +0.000 OA
ATOM     32  H78 UNK     0       4.970   3.419   0.940  0.00  0.00    +0.000 HD
ENDBRANCH  19  31
BRANCH  14  33
ATOM     33  C33 UNK     0      -4.804  -0.997  -2.057  0.00  0.00    +0.000 C 
ATOM     34  O5  UNK     0      -4.266  -0.604  -3.127  0.00  0.00    +0.000 OA
BRANCH  33  35
ATOM     35  O4  UNK     0      -6.055  -1.609  -2.121  0.00  0.00    +0.000 OA
ATOM     36  H83 UNK     0      -6.550  -1.692  -3.001  0.00  0.00    +0.000 HD
ENDBRANCH  33  35
ENDBRANCH  14  33
BRANCH   9  37
ATOM     37  C30 UNK     0       5.414  -1.437   1.735  0.00  0.00    +0.000 C 
BRANCH  37  38
ATOM     38  O3  UNK     0       6.794  -1.328   1.969  0.00  0.00    +0.000 OA
ATOM     39  H82 UNK     0       6.929  -1.330   2.955  0.00  0.00    +0.000 HD
ENDBRANCH  37  38
ENDBRANCH   9  37
TORSDOF 6
