REMARK  Name = C:\Users\Maximilian\Desktop\Conformers\converted_pdb\conformers_pdb\Asiatic Acid_conf_7.pdb
REMARK  12 active torsions:
REMARK  status: ('A' for Active; 'I' for Inactive)
REMARK    1  A    between atoms: C6_1  and  C20_15
REMARK    2  A    between atoms: C8_3  and  C25_20
REMARK    3  A    between atoms: C9_4  and  C26_21
REMARK    4  A    between atoms: C14_9  and  C31_25
REMARK    5  A    between atoms: C14_9  and  C30_29
REMARK    6  A    between atoms: C19_14  and  C33_36
REMARK    7  A    between atoms: C22_17  and  O1_32
REMARK    8  A    between atoms: C24_19  and  O2_34
REMARK    9  A    between atoms: C27_22  and  C34_27
REMARK   10  A    between atoms: C29_24  and  C35_28
REMARK   11  A    between atoms: C30_29  and  O3_30
REMARK   12  A    between atoms: C33_36  and  O4_38
REMARK                            x       y       z     vdW  Elec       q    Type
REMARK                         _______ _______ _______ _____ _____    ______ ____
ROOT
ATOM      1  C6  UNK     0      -0.447   0.619  -0.647  0.00  0.00    +0.000 C 
ATOM      2  C7  UNK     0      -1.090  -0.707  -0.080  0.00  0.00    +0.000 C 
ATOM      3  C8  UNK     0      -2.671  -0.909  -0.233  0.00  0.00    +0.000 C 
ATOM      4  C9  UNK     0       1.037   0.780  -0.036  0.00  0.00    +0.000 C 
ATOM      5  C10 UNK     0      -3.373   0.430   0.204  0.00  0.00    +0.000 C 
ATOM      6  C11 UNK     0      -1.340   1.843  -0.264  0.00  0.00    +0.000 C 
ATOM      7  C12 UNK     0       1.854  -0.504  -0.312  0.00  0.00    +0.000 C 
ATOM      8  C13 UNK     0      -2.817   1.642  -0.584  0.00  0.00    +0.000 C 
ATOM      9  C14 UNK     0      -4.957   0.393   0.323  0.00  0.00    +0.000 C 
ATOM     10  C15 UNK     0       3.387  -0.484  -0.435  0.00  0.00    +0.000 C 
ATOM     11  C16 UNK     0      -0.243  -1.925  -0.519  0.00  0.00    +0.000 C 
ATOM     12  C17 UNK     0      -3.119  -2.078   0.732  0.00  0.00    +0.000 C 
ATOM     13  C18 UNK     0       1.726   2.046  -0.650  0.00  0.00    +0.000 C 
ATOM     14  C19 UNK     0       3.900   0.791  -1.194  0.00  0.00    +0.000 C 
ATOM     15  C20 UNK     0      -0.347   0.549  -2.216  0.00  0.00    +0.000 C 
ATOM     16  C21 UNK     0       3.254   2.052  -0.563  0.00  0.00    +0.000 C 
ATOM     17  C22 UNK     0      -5.459  -1.026   0.817  0.00  0.00    +0.000 C 
ATOM     18  C23 UNK     0       1.242  -1.716  -0.379  0.00  0.00    +0.000 C 
ATOM     19  C24 UNK     0      -4.381  -1.814   1.584  0.00  0.00    +0.000 C 
ATOM     20  C25 UNK     0      -3.094  -1.322  -1.680  0.00  0.00    +0.000 C 
ATOM     21  C26 UNK     0       1.059   0.974   1.516  0.00  0.00    +0.000 C 
ATOM     22  C27 UNK     0       4.159  -0.690   0.909  0.00  0.00    +0.000 C 
ATOM     23  C28 UNK     0       5.456   0.942  -1.087  0.00  0.00    +0.000 C 
ATOM     24  C29 UNK     0       5.690  -0.906   0.650  0.00  0.00    +0.000 C 
ATOM     25  C31 UNK     0      -5.648   0.783  -1.015  0.00  0.00    +0.000 C 
ATOM     26  C32 UNK     0       6.157  -0.371  -0.727  0.00  0.00    +0.000 C 
ATOM     27  C34 UNK     0       3.602  -1.854   1.746  0.00  0.00    +0.000 C 
ATOM     28  C35 UNK     0       6.526  -0.285   1.782  0.00  0.00    +0.000 C 
ENDROOT
BRANCH  17  29
ATOM     29  O1  UNK     0      -5.935  -1.809  -0.253  0.00  0.00    +0.000 OA
ATOM     30  H77 UNK     0      -6.531  -2.505   0.125  0.00  0.00    +0.000 HD
ENDBRANCH  17  29
BRANCH  19  31
ATOM     31  O2  UNK     0      -4.038  -1.121   2.761  0.00  0.00    +0.000 OA
ATOM     32  H78 UNK     0      -3.660  -1.789   3.391  0.00  0.00    +0.000 HD
ENDBRANCH  19  31
BRANCH  14  33
ATOM     33  C33 UNK     0       3.542   0.705  -2.676  0.00  0.00    +0.000 C 
ATOM     34  O5  UNK     0       3.465  -0.411  -3.260  0.00  0.00    +0.000 OA
BRANCH  33  35
ATOM     35  O4  UNK     0       3.385   1.869  -3.425  0.00  0.00    +0.000 OA
ATOM     36  H83 UNK     0       3.138   1.827  -4.404  0.00  0.00    +0.000 HD
ENDBRANCH  33  35
ENDBRANCH  14  33
BRANCH   9  37
ATOM     37  C30 UNK     0      -5.395   1.460   1.388  0.00  0.00    +0.000 C 
BRANCH  37  38
ATOM     38  O3  UNK     0      -6.792   1.508   1.534  0.00  0.00    +0.000 OA
ATOM     39  H82 UNK     0      -7.132   2.183   0.887  0.00  0.00    +0.000 HD
ENDBRANCH  37  38
ENDBRANCH   9  37
TORSDOF 6
