REMARK  Name = C:\Users\Maximilian\Desktop\Conformers\converted_pdb\conformers_pdb\Asiatic Acid_conf_24.pdb
REMARK  12 active torsions:
REMARK  status: ('A' for Active; 'I' for Inactive)
REMARK    1  A    between atoms: C6_1  and  C20_15
REMARK    2  A    between atoms: C8_3  and  C25_20
REMARK    3  A    between atoms: C9_4  and  C26_21
REMARK    4  A    between atoms: C14_9  and  C31_25
REMARK    5  A    between atoms: C14_9  and  C30_29
REMARK    6  A    between atoms: C19_14  and  C33_36
REMARK    7  A    between atoms: C22_17  and  O1_32
REMARK    8  A    between atoms: C24_19  and  O2_34
REMARK    9  A    between atoms: C27_22  and  C34_27
REMARK   10  A    between atoms: C29_24  and  C35_28
REMARK   11  A    between atoms: C30_29  and  O3_30
REMARK   12  A    between atoms: C33_36  and  O4_38
REMARK                            x       y       z     vdW  Elec       q    Type
REMARK                         _______ _______ _______ _____ _____    ______ ____
ROOT
ATOM      1  C6  UNK     0       0.441  -0.770   0.072  0.00  0.00    +0.000 C 
ATOM      2  C7  UNK     0       1.155   0.629   0.189  0.00  0.00    +0.000 C 
ATOM      3  C8  UNK     0       2.602   0.745  -0.450  0.00  0.00    +0.000 C 
ATOM      4  C9  UNK     0      -0.908  -0.701   0.947  0.00  0.00    +0.000 C 
ATOM      5  C10 UNK     0       3.483  -0.402   0.186  0.00  0.00    +0.000 C 
ATOM      6  C11 UNK     0       1.413  -1.869   0.596  0.00  0.00    +0.000 C 
ATOM      7  C12 UNK     0      -1.847   0.298   0.268  0.00  0.00    +0.000 C 
ATOM      8  C13 UNK     0       2.836  -1.800  -0.001  0.00  0.00    +0.000 C 
ATOM      9  C14 UNK     0       5.037  -0.321  -0.115  0.00  0.00    +0.000 C 
ATOM     10  C15 UNK     0      -3.262  -0.159  -0.180  0.00  0.00    +0.000 C 
ATOM     11  C16 UNK     0       0.185   1.819  -0.103  0.00  0.00    +0.000 C 
ATOM     12  C17 UNK     0       3.221   2.113  -0.012  0.00  0.00    +0.000 C 
ATOM     13  C18 UNK     0      -1.580  -2.106   1.072  0.00  0.00    +0.000 C 
ATOM     14  C19 UNK     0      -3.973  -1.144   0.843  0.00  0.00    +0.000 C 
ATOM     15  C20 UNK     0       0.087  -1.095  -1.425  0.00  0.00    +0.000 C 
ATOM     16  C21 UNK     0      -2.990  -2.047   1.656  0.00  0.00    +0.000 C 
ATOM     17  C22 UNK     0       5.540   1.101   0.310  0.00  0.00    +0.000 C 
ATOM     18  C23 UNK     0      -1.295   1.469  -0.176  0.00  0.00    +0.000 C 
ATOM     19  C24 UNK     0       4.725   2.260  -0.305  0.00  0.00    +0.000 C 
ATOM     20  C25 UNK     0       2.541   0.693  -2.011  0.00  0.00    +0.000 C 
ATOM     21  C26 UNK     0      -0.682  -0.174   2.407  0.00  0.00    +0.000 C 
ATOM     22  C27 UNK     0      -4.199   1.038  -0.631  0.00  0.00    +0.000 C 
ATOM     23  C28 UNK     0      -4.782  -0.284   1.852  0.00  0.00    +0.000 C 
ATOM     24  C29 UNK     0      -5.702   0.822  -0.298  0.00  0.00    +0.000 C 
ATOM     25  C31 UNK     0       5.394  -0.600  -1.601  0.00  0.00    +0.000 C 
ATOM     26  C32 UNK     0      -5.903   0.551   1.208  0.00  0.00    +0.000 C 
ATOM     27  C34 UNK     0      -4.014   1.318  -2.141  0.00  0.00    +0.000 C 
ATOM     28  C35 UNK     0      -6.577   2.018  -0.716  0.00  0.00    +0.000 C 
ENDROOT
BRANCH  17  29
ATOM     29  O1  UNK     0       6.895   1.255  -0.039  0.00  0.00    +0.000 OA
ATOM     30  H77 UNK     0       7.300   1.888   0.610  0.00  0.00    +0.000 HD
ENDBRANCH  17  29
BRANCH  19  31
ATOM     31  O2  UNK     0       5.156   3.478   0.249  0.00  0.00    +0.000 OA
ATOM     32  H78 UNK     0       5.934   3.788  -0.283  0.00  0.00    +0.000 HD
ENDBRANCH  19  31
BRANCH  14  33
ATOM     33  C33 UNK     0      -4.905  -2.105   0.102  0.00  0.00    +0.000 C 
ATOM     34  O5  UNK     0      -5.959  -2.523   0.655  0.00  0.00    +0.000 OA
BRANCH  33  35
ATOM     35  O4  UNK     0      -4.551  -2.614  -1.145  0.00  0.00    +0.000 OA
ATOM     36  H83 UNK     0      -5.152  -3.272  -1.630  0.00  0.00    +0.000 HD
ENDBRANCH  33  35
ENDBRANCH  14  33
BRANCH   9  37
ATOM     37  C30 UNK     0       5.813  -1.360   0.765  0.00  0.00    +0.000 C 
BRANCH  37  38
ATOM     38  O3  UNK     0       5.760  -2.650   0.214  0.00  0.00    +0.000 OA
ATOM     39  H82 UNK     0       6.264  -3.237   0.836  0.00  0.00    +0.000 HD
ENDBRANCH  37  38
ENDBRANCH   9  37
TORSDOF 6
