REMARK  Name = C:\Users\Maximilian\Desktop\Conformers\converted_pdb\conformers_pdb\Asiatic Acid_conf_14.pdb
REMARK  12 active torsions:
REMARK  status: ('A' for Active; 'I' for Inactive)
REMARK    1  A    between atoms: C6_1  and  C20_15
REMARK    2  A    between atoms: C8_3  and  C25_20
REMARK    3  A    between atoms: C9_4  and  C26_21
REMARK    4  A    between atoms: C14_9  and  C31_25
REMARK    5  A    between atoms: C14_9  and  C30_29
REMARK    6  A    between atoms: C19_14  and  C33_36
REMARK    7  A    between atoms: C22_17  and  O1_32
REMARK    8  A    between atoms: C24_19  and  O2_34
REMARK    9  A    between atoms: C27_22  and  C34_27
REMARK   10  A    between atoms: C29_24  and  C35_28
REMARK   11  A    between atoms: C30_29  and  O3_30
REMARK   12  A    between atoms: C33_36  and  O4_38
REMARK                            x       y       z     vdW  Elec       q    Type
REMARK                         _______ _______ _______ _____ _____    ______ ____
ROOT
ATOM      1  C6  UNK     0      -0.335  -0.835   0.232  0.00  0.00    +0.000 C 
ATOM      2  C7  UNK     0      -1.258   0.291  -0.366  0.00  0.00    +0.000 C 
ATOM      3  C8  UNK     0      -2.796   0.270   0.035  0.00  0.00    +0.000 C 
ATOM      4  C9  UNK     0       1.106  -0.718  -0.486  0.00  0.00    +0.000 C 
ATOM      5  C10 UNK     0      -3.349  -1.177  -0.288  0.00  0.00    +0.000 C 
ATOM      6  C11 UNK     0      -1.008  -2.215  -0.037  0.00  0.00    +0.000 C 
ATOM      7  C12 UNK     0       1.733   0.619  -0.080  0.00  0.00    +0.000 C 
ATOM      8  C13 UNK     0      -2.487  -2.281   0.389  0.00  0.00    +0.000 C 
ATOM      9  C14 UNK     0      -4.926  -1.373  -0.142  0.00  0.00    +0.000 C 
ATOM     10  C15 UNK     0       3.154   0.650   0.551  0.00  0.00    +0.000 C 
ATOM     11  C16 UNK     0      -0.576   1.696  -0.344  0.00  0.00    +0.000 C 
ATOM     12  C17 UNK     0      -3.547   1.328  -0.862  0.00  0.00    +0.000 C 
ATOM     13  C18 UNK     0       2.038  -1.901  -0.079  0.00  0.00    +0.000 C 
ATOM     14  C19 UNK     0       4.158  -0.409  -0.078  0.00  0.00    +0.000 C 
ATOM     15  C20 UNK     0      -0.170  -0.669   1.785  0.00  0.00    +0.000 C 
ATOM     16  C21 UNK     0       3.477  -1.734  -0.560  0.00  0.00    +0.000 C 
ATOM     17  C22 UNK     0      -5.695  -0.020  -0.415  0.00  0.00    +0.000 C 
ATOM     18  C23 UNK     0       0.910   1.709  -0.034  0.00  0.00    +0.000 C 
ATOM     19  C24 UNK     0      -4.941   0.919  -1.381  0.00  0.00    +0.000 C 
ATOM     20  C25 UNK     0      -3.001   0.662   1.535  0.00  0.00    +0.000 C 
ATOM     21  C26 UNK     0       1.021  -0.708  -2.052  0.00  0.00    +0.000 C 
ATOM     22  C27 UNK     0       3.776   2.108   0.629  0.00  0.00    +0.000 C 
ATOM     23  C28 UNK     0       4.849   0.254  -1.299  0.00  0.00    +0.000 C 
ATOM     24  C29 UNK     0       5.312   2.162   0.390  0.00  0.00    +0.000 C 
ATOM     25  C31 UNK     0      -5.337  -1.922   1.255  0.00  0.00    +0.000 C 
ATOM     26  C32 UNK     0       5.692   1.495  -0.951  0.00  0.00    +0.000 C 
ATOM     27  C34 UNK     0       3.418   2.764   1.983  0.00  0.00    +0.000 C 
ATOM     28  C35 UNK     0       5.862   3.601   0.408  0.00  0.00    +0.000 C 
ENDROOT
BRANCH  17  29
ATOM     29  O1  UNK     0      -5.980   0.667   0.779  0.00  0.00    +0.000 OA
ATOM     30  H77 UNK     0      -6.692   1.331   0.579  0.00  0.00    +0.000 HD
ENDBRANCH  17  29
BRANCH  19  31
ATOM     31  O2  UNK     0      -4.812   0.325  -2.648  0.00  0.00    +0.000 OA
ATOM     32  H78 UNK     0      -5.707   0.358  -3.077  0.00  0.00    +0.000 HD
ENDBRANCH  19  31
BRANCH  14  33
ATOM     33  C33 UNK     0       5.210  -0.833   0.949  0.00  0.00    +0.000 C 
ATOM     34  O5  UNK     0       4.898  -0.991   2.161  0.00  0.00    +0.000 OA
BRANCH  33  35
ATOM     35  O4  UNK     0       6.503  -1.151   0.538  0.00  0.00    +0.000 OA
ATOM     36  H83 UNK     0       7.199  -1.463   1.205  0.00  0.00    +0.000 HD
ENDBRANCH  33  35
ENDBRANCH  14  33
BRANCH   9  37
ATOM     37  C30 UNK     0      -5.435  -2.413  -1.204  0.00  0.00    +0.000 C 
BRANCH  37  38
ATOM     38  O3  UNK     0      -4.881  -3.690  -1.023  0.00  0.00    +0.000 OA
ATOM     39  H82 UNK     0      -5.518  -4.213  -0.470  0.00  0.00    +0.000 HD
ENDBRANCH  37  38
ENDBRANCH   9  37
TORSDOF 6
