REMARK  Name = C:\Users\Maximilian\Desktop\Conformers\converted_pdb\conformers_pdb\Asiatic Acid_conf_10.pdb
REMARK  12 active torsions:
REMARK  status: ('A' for Active; 'I' for Inactive)
REMARK    1  A    between atoms: C6_1  and  C20_15
REMARK    2  A    between atoms: C8_3  and  C25_20
REMARK    3  A    between atoms: C9_4  and  C26_21
REMARK    4  A    between atoms: C14_9  and  C31_25
REMARK    5  A    between atoms: C14_9  and  C30_29
REMARK    6  A    between atoms: C19_14  and  C33_36
REMARK    7  A    between atoms: C22_17  and  O1_32
REMARK    8  A    between atoms: C24_19  and  O2_34
REMARK    9  A    between atoms: C27_22  and  C34_27
REMARK   10  A    between atoms: C29_24  and  C35_28
REMARK   11  A    between atoms: C30_29  and  O3_30
REMARK   12  A    between atoms: C33_36  and  O4_38
REMARK                            x       y       z     vdW  Elec       q    Type
REMARK                         _______ _______ _______ _____ _____    ______ ____
ROOT
ATOM      1  C6  UNK     0       0.308   0.380  -0.736  0.00  0.00    +0.000 C 
ATOM      2  C7  UNK     0       1.207  -0.413   0.284  0.00  0.00    +0.000 C 
ATOM      3  C8  UNK     0       2.669   0.150   0.537  0.00  0.00    +0.000 C 
ATOM      4  C9  UNK     0      -1.038  -0.476  -0.963  0.00  0.00    +0.000 C 
ATOM      5  C10 UNK     0       3.370   0.269  -0.874  0.00  0.00    +0.000 C 
ATOM      6  C11 UNK     0       1.112   0.570  -2.060  0.00  0.00    +0.000 C 
ATOM      7  C12 UNK     0      -1.806  -0.499   0.360  0.00  0.00    +0.000 C 
ATOM      8  C13 UNK     0       2.536   1.137  -1.855  0.00  0.00    +0.000 C 
ATOM      9  C14 UNK     0       4.933   0.551  -0.863  0.00  0.00    +0.000 C 
ATOM     10  C15 UNK     0      -3.255   0.056   0.415  0.00  0.00    +0.000 C 
ATOM     11  C16 UNK     0       0.428  -0.853   1.563  0.00  0.00    +0.000 C 
ATOM     12  C17 UNK     0       3.458  -0.914   1.363  0.00  0.00    +0.000 C 
ATOM     13  C18 UNK     0      -1.918   0.132  -2.102  0.00  0.00    +0.000 C 
ATOM     14  C19 UNK     0      -4.138  -0.327  -0.851  0.00  0.00    +0.000 C 
ATOM     15  C20 UNK     0      -0.059   1.805  -0.189  0.00  0.00    +0.000 C 
ATOM     16  C21 UNK     0      -3.314  -0.486  -2.172  0.00  0.00    +0.000 C 
ATOM     17  C22 UNK     0       5.623  -0.515   0.062  0.00  0.00    +0.000 C 
ATOM     18  C23 UNK     0      -1.084  -0.732   1.496  0.00  0.00    +0.000 C 
ATOM     19  C24 UNK     0       4.968  -0.647   1.459  0.00  0.00    +0.000 C 
ATOM     20  C25 UNK     0       2.633   1.493   1.337  0.00  0.00    +0.000 C 
ATOM     21  C26 UNK     0      -0.767  -1.973  -1.342  0.00  0.00    +0.000 C 
ATOM     22  C27 UNK     0      -3.991  -0.243   1.787  0.00  0.00    +0.000 C 
ATOM     23  C28 UNK     0      -4.846  -1.674  -0.543  0.00  0.00    +0.000 C 
ATOM     24  C29 UNK     0      -5.523  -0.459   1.641  0.00  0.00    +0.000 C 
ATOM     25  C31 UNK     0       5.284   1.990  -0.402  0.00  0.00    +0.000 C 
ATOM     26  C32 UNK     0      -5.836  -1.590   0.636  0.00  0.00    +0.000 C 
ATOM     27  C34 UNK     0      -3.697   0.885   2.803  0.00  0.00    +0.000 C 
ATOM     28  C35 UNK     0      -6.212  -0.768   2.981  0.00  0.00    +0.000 C 
ENDROOT
BRANCH  17  29
ATOM     29  O1  UNK     0       6.985  -0.207   0.249  0.00  0.00    +0.000 OA
ATOM     30  H77 UNK     0       7.515  -1.021   0.044  0.00  0.00    +0.000 HD
ENDBRANCH  17  29
BRANCH  19  31
ATOM     31  O2  UNK     0       5.551  -1.673   2.234  0.00  0.00    +0.000 OA
ATOM     32  H78 UNK     0       6.003  -2.336   1.637  0.00  0.00    +0.000 HD
ENDBRANCH  19  31
BRANCH  14  33
ATOM     33  C33 UNK     0      -5.179   0.758  -1.144  0.00  0.00    +0.000 C 
ATOM     34  O5  UNK     0      -6.267   0.455  -1.707  0.00  0.00    +0.000 OA
BRANCH  33  35
ATOM     35  O4  UNK     0      -4.901   2.101  -0.889  0.00  0.00    +0.000 OA
ATOM     36  H83 UNK     0      -5.579   2.823  -1.099  0.00  0.00    +0.000 HD
ENDBRANCH  33  35
ENDBRANCH  14  33
BRANCH   9  37
ATOM     37  C30 UNK     0       5.496   0.375  -2.317  0.00  0.00    +0.000 C 
BRANCH  37  38
ATOM     38  O3  UNK     0       6.899   0.284  -2.344  0.00  0.00    +0.000 OA
ATOM     39  H82 UNK     0       7.248   1.206  -2.470  0.00  0.00    +0.000 HD
ENDBRANCH  37  38
ENDBRANCH   9  37
TORSDOF 6
