REMARK  Name = C:\Users\Maximilian\Desktop\Conformers\converted_pdb\conformers_pdb\Asiatic Acid_conf_45.pdb
REMARK  12 active torsions:
REMARK  status: ('A' for Active; 'I' for Inactive)
REMARK    1  A    between atoms: C6_1  and  C20_15
REMARK    2  A    between atoms: C8_3  and  C25_20
REMARK    3  A    between atoms: C9_4  and  C26_21
REMARK    4  A    between atoms: C14_9  and  C31_25
REMARK    5  A    between atoms: C14_9  and  C30_29
REMARK    6  A    between atoms: C19_14  and  C33_36
REMARK    7  A    between atoms: C22_17  and  O1_32
REMARK    8  A    between atoms: C24_19  and  O2_34
REMARK    9  A    between atoms: C27_22  and  C34_27
REMARK   10  A    between atoms: C29_24  and  C35_28
REMARK   11  A    between atoms: C30_29  and  O3_30
REMARK   12  A    between atoms: C33_36  and  O4_38
REMARK                            x       y       z     vdW  Elec       q    Type
REMARK                         _______ _______ _______ _____ _____    ______ ____
ROOT
ATOM      1  C6  UNK     0       0.431  -0.148  -0.893  0.00  0.00    +0.000 C 
ATOM      2  C7  UNK     0       1.155   0.282   0.447  0.00  0.00    +0.000 C 
ATOM      3  C8  UNK     0       2.736   0.500   0.389  0.00  0.00    +0.000 C 
ATOM      4  C9  UNK     0      -1.099  -0.564  -0.549  0.00  0.00    +0.000 C 
ATOM      5  C10 UNK     0       3.369  -0.797  -0.243  0.00  0.00    +0.000 C 
ATOM      6  C11 UNK     0       1.238  -1.334  -1.528  0.00  0.00    +0.000 C 
ATOM      7  C12 UNK     0      -1.802   0.581   0.206  0.00  0.00    +0.000 C 
ATOM      8  C13 UNK     0       2.753  -1.093  -1.633  0.00  0.00    +0.000 C 
ATOM      9  C14 UNK     0       4.949  -0.922  -0.146  0.00  0.00    +0.000 C 
ATOM     10  C15 UNK     0      -3.328   0.819   0.103  0.00  0.00    +0.000 C 
ATOM     11  C16 UNK     0       0.392   1.399   1.206  0.00  0.00    +0.000 C 
ATOM     12  C17 UNK     0       3.262   0.617   1.856  0.00  0.00    +0.000 C 
ATOM     13  C18 UNK     0      -1.924  -0.919  -1.839  0.00  0.00    +0.000 C 
ATOM     14  C19 UNK     0      -3.906   0.680  -1.371  0.00  0.00    +0.000 C 
ATOM     15  C20 UNK     0       0.426   1.015  -1.928  0.00  0.00    +0.000 C 
ATOM     16  C21 UNK     0      -2.799   0.231  -2.364  0.00  0.00    +0.000 C 
ATOM     17  C22 UNK     0       5.366  -0.727   1.351  0.00  0.00    +0.000 C 
ATOM     18  C23 UNK     0      -1.100   1.399   1.027  0.00  0.00    +0.000 C 
ATOM     19  C24 UNK     0       4.796   0.551   1.994  0.00  0.00    +0.000 C 
ATOM     20  C25 UNK     0       3.122   1.809  -0.385  0.00  0.00    +0.000 C 
ATOM     21  C26 UNK     0      -1.178  -1.809   0.391  0.00  0.00    +0.000 C 
ATOM     22  C27 UNK     0      -4.154   0.013   1.167  0.00  0.00    +0.000 C 
ATOM     23  C28 UNK     0      -5.073  -0.345  -1.427  0.00  0.00    +0.000 C 
ATOM     24  C29 UNK     0      -5.668   0.345   0.999  0.00  0.00    +0.000 C 
ATOM     25  C31 UNK     0       5.706   0.085  -1.054  0.00  0.00    +0.000 C 
ATOM     26  C32 UNK     0      -6.188  -0.045  -0.412  0.00  0.00    +0.000 C 
ATOM     27  C34 UNK     0      -3.658   0.292   2.603  0.00  0.00    +0.000 C 
ATOM     28  C35 UNK     0      -6.558  -0.306   2.074  0.00  0.00    +0.000 C 
ENDROOT
BRANCH  17  29
ATOM     29  O1  UNK     0       6.770  -0.706   1.467  0.00  0.00    +0.000 OA
ATOM     30  H77 UNK     0       7.000  -1.078   2.358  0.00  0.00    +0.000 HD
ENDBRANCH  17  29
BRANCH  19  31
ATOM     31  O2  UNK     0       5.132   0.556   3.360  0.00  0.00    +0.000 OA
ATOM     32  H78 UNK     0       4.986   1.480   3.694  0.00  0.00    +0.000 HD
ENDBRANCH  19  31
BRANCH  14  33
ATOM     33  C33 UNK     0      -4.461   2.015  -1.882  0.00  0.00    +0.000 C 
ATOM     34  O5  UNK     0      -5.036   2.821  -1.100  0.00  0.00    +0.000 OA
BRANCH  33  35
ATOM     35  O4  UNK     0      -4.426   2.315  -3.243  0.00  0.00    +0.000 OA
ATOM     36  H83 UNK     0      -4.814   3.182  -3.594  0.00  0.00    +0.000 HD
ENDBRANCH  33  35
ENDBRANCH  14  33
BRANCH   9  37
ATOM     37  C30 UNK     0       5.406  -2.367  -0.551  0.00  0.00    +0.000 C 
BRANCH  37  38
ATOM     38  O3  UNK     0       5.472  -2.522  -1.947  0.00  0.00    +0.000 OA
ATOM     39  H82 UNK     0       6.080  -3.289  -2.129  0.00  0.00    +0.000 HD
ENDBRANCH  37  38
ENDBRANCH   9  37
TORSDOF 6
