REMARK  Name = C:\Users\Maximilian\Desktop\Conformers\converted_pdb\conformers_pdb\Asiatic Acid_conf_31.pdb
REMARK  12 active torsions:
REMARK  status: ('A' for Active; 'I' for Inactive)
REMARK    1  A    between atoms: C6_1  and  C20_15
REMARK    2  A    between atoms: C8_3  and  C25_20
REMARK    3  A    between atoms: C9_4  and  C26_21
REMARK    4  A    between atoms: C14_9  and  C31_25
REMARK    5  A    between atoms: C14_9  and  C30_29
REMARK    6  A    between atoms: C19_14  and  C33_36
REMARK    7  A    between atoms: C22_17  and  O1_32
REMARK    8  A    between atoms: C24_19  and  O2_34
REMARK    9  A    between atoms: C27_22  and  C34_27
REMARK   10  A    between atoms: C29_24  and  C35_28
REMARK   11  A    between atoms: C30_29  and  O3_30
REMARK   12  A    between atoms: C33_36  and  O4_38
REMARK                            x       y       z     vdW  Elec       q    Type
REMARK                         _______ _______ _______ _____ _____    ______ ____
ROOT
ATOM      1  C6  UNK     0      -0.395  -0.600   0.603  0.00  0.00    +0.000 C 
ATOM      2  C7  UNK     0      -1.101   0.632  -0.101  0.00  0.00    +0.000 C 
ATOM      3  C8  UNK     0      -2.670   0.821   0.145  0.00  0.00    +0.000 C 
ATOM      4  C9  UNK     0       1.107  -0.757   0.005  0.00  0.00    +0.000 C 
ATOM      5  C10 UNK     0      -3.368  -0.555  -0.187  0.00  0.00    +0.000 C 
ATOM      6  C11 UNK     0      -1.263  -1.878   0.345  0.00  0.00    +0.000 C 
ATOM      7  C12 UNK     0       1.866   0.579   0.112  0.00  0.00    +0.000 C 
ATOM      8  C13 UNK     0      -2.757  -1.703   0.658  0.00  0.00    +0.000 C 
ATOM      9  C14 UNK     0      -4.953  -0.536  -0.281  0.00  0.00    +0.000 C 
ATOM     10  C15 UNK     0       3.392   0.614   0.329  0.00  0.00    +0.000 C 
ATOM     11  C16 UNK     0      -0.274   1.939   0.017  0.00  0.00    +0.000 C 
ATOM     12  C17 UNK     0      -3.198   1.880  -0.878  0.00  0.00    +0.000 C 
ATOM     13  C18 UNK     0       1.955  -1.871   0.724  0.00  0.00    +0.000 C 
ATOM     14  C19 UNK     0       3.823  -0.262   1.576  0.00  0.00    +0.000 C 
ATOM     15  C20 UNK     0      -0.320  -0.397   2.142  0.00  0.00    +0.000 C 
ATOM     16  C21 UNK     0       2.799  -1.389   1.919  0.00  0.00    +0.000 C 
ATOM     17  C22 UNK     0      -5.363   0.600  -1.283  0.00  0.00    +0.000 C 
ATOM     18  C23 UNK     0       1.218   1.761   0.001  0.00  0.00    +0.000 C 
ATOM     19  C24 UNK     0      -4.731   1.977  -0.974  0.00  0.00    +0.000 C 
ATOM     20  C25 UNK     0      -2.984   1.332   1.594  0.00  0.00    +0.000 C 
ATOM     21  C26 UNK     0       1.081  -1.147  -1.512  0.00  0.00    +0.000 C 
ATOM     22  C27 UNK     0       4.212   0.312  -0.970  0.00  0.00    +0.000 C 
ATOM     23  C28 UNK     0       5.211  -0.922   1.320  0.00  0.00    +0.000 C 
ATOM     24  C29 UNK     0       5.752   0.477  -0.735  0.00  0.00    +0.000 C 
ATOM     25  C31 UNK     0      -5.643  -0.331   1.095  0.00  0.00    +0.000 C 
ATOM     26  C32 UNK     0       6.188   0.076   0.696  0.00  0.00    +0.000 C 
ATOM     27  C34 UNK     0       3.761   1.217  -2.139  0.00  0.00    +0.000 C 
ATOM     28  C35 UNK     0       6.562  -0.326  -1.772  0.00  0.00    +0.000 C 
ENDROOT
BRANCH  17  29
ATOM     29  O1  UNK     0      -6.764   0.711  -1.397  0.00  0.00    +0.000 OA
ATOM     30  H77 UNK     0      -7.105   1.181  -0.593  0.00  0.00    +0.000 HD
ENDBRANCH  17  29
BRANCH  19  31
ATOM     31  O2  UNK     0      -5.046   2.877  -2.007  0.00  0.00    +0.000 OA
ATOM     32  H78 UNK     0      -5.975   3.192  -1.851  0.00  0.00    +0.000 HD
ENDBRANCH  19  31
BRANCH  14  33
ATOM     33  C33 UNK     0       3.910   0.641   2.809  0.00  0.00    +0.000 C 
ATOM     34  O5  UNK     0       3.013   1.504   3.021  0.00  0.00    +0.000 OA
BRANCH  33  35
ATOM     35  O4  UNK     0       4.918   0.470   3.756  0.00  0.00    +0.000 OA
ATOM     36  H83 UNK     0       4.956   1.051   4.585  0.00  0.00    +0.000 HD
ENDBRANCH  33  35
ENDBRANCH  14  33
BRANCH   9  37
ATOM     37  C30 UNK     0      -5.479  -1.882  -0.897  0.00  0.00    +0.000 C 
BRANCH  37  38
ATOM     38  O3  UNK     0      -5.526  -2.927   0.042  0.00  0.00    +0.000 OA
ATOM     39  H82 UNK     0      -6.438  -2.934   0.434  0.00  0.00    +0.000 HD
ENDBRANCH  37  38
ENDBRANCH   9  37
TORSDOF 6
