REMARK  Name = C:\Users\Maximilian\Desktop\Conformers\converted_pdb\conformers_pdb\Asiatic Acid_conf_44.pdb
REMARK  12 active torsions:
REMARK  status: ('A' for Active; 'I' for Inactive)
REMARK    1  A    between atoms: C6_1  and  C20_15
REMARK    2  A    between atoms: C8_3  and  C25_20
REMARK    3  A    between atoms: C9_4  and  C26_21
REMARK    4  A    between atoms: C14_9  and  C31_25
REMARK    5  A    between atoms: C14_9  and  C30_29
REMARK    6  A    between atoms: C19_14  and  C33_36
REMARK    7  A    between atoms: C22_17  and  O1_32
REMARK    8  A    between atoms: C24_19  and  O2_34
REMARK    9  A    between atoms: C27_22  and  C34_27
REMARK   10  A    between atoms: C29_24  and  C35_28
REMARK   11  A    between atoms: C30_29  and  O3_30
REMARK   12  A    between atoms: C33_36  and  O4_38
REMARK                            x       y       z     vdW  Elec       q    Type
REMARK                         _______ _______ _______ _____ _____    ______ ____
ROOT
ATOM      1  C6  UNK     0       0.392  -0.336  -0.839  0.00  0.00    +0.000 C 
ATOM      2  C7  UNK     0       1.077   0.292   0.439  0.00  0.00    +0.000 C 
ATOM      3  C8  UNK     0       2.643   0.567   0.372  0.00  0.00    +0.000 C 
ATOM      4  C9  UNK     0      -1.135  -0.720  -0.453  0.00  0.00    +0.000 C 
ATOM      5  C10 UNK     0       3.336  -0.782  -0.052  0.00  0.00    +0.000 C 
ATOM      6  C11 UNK     0       1.248  -1.576  -1.292  0.00  0.00    +0.000 C 
ATOM      7  C12 UNK     0      -1.881   0.570  -0.011  0.00  0.00    +0.000 C 
ATOM      8  C13 UNK     0       2.759  -1.309  -1.390  0.00  0.00    +0.000 C 
ATOM      9  C14 UNK     0       4.919  -0.829   0.072  0.00  0.00    +0.000 C 
ATOM     10  C15 UNK     0      -3.303   0.973  -0.472  0.00  0.00    +0.000 C 
ATOM     11  C16 UNK     0       0.257   1.456   1.068  0.00  0.00    +0.000 C 
ATOM     12  C17 UNK     0       3.135   0.921   1.813  0.00  0.00    +0.000 C 
ATOM     13  C18 UNK     0      -1.861  -1.450  -1.648  0.00  0.00    +0.000 C 
ATOM     14  C19 UNK     0      -3.971   0.008  -1.515  0.00  0.00    +0.000 C 
ATOM     15  C20 UNK     0       0.365   0.664  -2.039  0.00  0.00    +0.000 C 
ATOM     16  C21 UNK     0      -2.877  -0.602  -2.411  0.00  0.00    +0.000 C 
ATOM     17  C22 UNK     0       5.305  -0.390   1.532  0.00  0.00    +0.000 C 
ATOM     18  C23 UNK     0      -1.193   1.524   0.671  0.00  0.00    +0.000 C 
ATOM     19  C24 UNK     0       4.667   0.944   1.972  0.00  0.00    +0.000 C 
ATOM     20  C25 UNK     0       2.974   1.762  -0.587  0.00  0.00    +0.000 C 
ATOM     21  C26 UNK     0      -1.205  -1.683   0.776  0.00  0.00    +0.000 C 
ATOM     22  C27 UNK     0      -4.249   1.401   0.737  0.00  0.00    +0.000 C 
ATOM     23  C28 UNK     0      -4.782  -1.105  -0.798  0.00  0.00    +0.000 C 
ATOM     24  C29 UNK     0      -5.241   0.313   1.253  0.00  0.00    +0.000 C 
ATOM     25  C31 UNK     0       5.637   0.050  -0.988  0.00  0.00    +0.000 C 
ATOM     26  C32 UNK     0      -5.855  -0.521   0.118  0.00  0.00    +0.000 C 
ATOM     27  C34 UNK     0      -5.019   2.704   0.435  0.00  0.00    +0.000 C 
ATOM     28  C35 UNK     0      -4.618  -0.561   2.354  0.00  0.00    +0.000 C 
ENDROOT
BRANCH  17  29
ATOM     29  O1  UNK     0       6.702  -0.340   1.720  0.00  0.00    +0.000 OA
ATOM     30  H77 UNK     0       7.048   0.472   1.265  0.00  0.00    +0.000 HD
ENDBRANCH  17  29
BRANCH  19  31
ATOM     31  O2  UNK     0       4.986   1.171   3.323  0.00  0.00    +0.000 OA
ATOM     32  H78 UNK     0       4.798   2.127   3.509  0.00  0.00    +0.000 HD
ENDBRANCH  19  31
BRANCH  14  33
ATOM     33  C33 UNK     0      -4.912   0.743  -2.475  0.00  0.00    +0.000 C 
ATOM     34  O5  UNK     0      -5.013   2.003  -2.470  0.00  0.00    +0.000 OA
BRANCH  33  35
ATOM     35  O4  UNK     0      -5.658   0.009  -3.395  0.00  0.00    +0.000 OA
ATOM     36  H83 UNK     0      -6.281   0.481  -4.043  0.00  0.00    +0.000 HD
ENDBRANCH  33  35
ENDBRANCH  14  33
BRANCH   9  37
ATOM     37  C30 UNK     0       5.399  -2.303  -0.149  0.00  0.00    +0.000 C 
BRANCH  37  38
ATOM     38  O3  UNK     0       6.739  -2.486   0.230  0.00  0.00    +0.000 OA
ATOM     39  H82 UNK     0       6.923  -3.458   0.152  0.00  0.00    +0.000 HD
ENDBRANCH  37  38
ENDBRANCH   9  37
TORSDOF 6
