REMARK  Name = C:\Users\Maximilian\Desktop\Conformers\converted_pdb\conformers_pdb\Berberine_conf_1.pdb
REMARK  4 active torsions:
REMARK  status: ('A' for Active; 'I' for Inactive)
REMARK    1  A    between atoms: C19_17  and  O3_22
REMARK    2  A    between atoms: C21_19  and  O4_24
REMARK    3  A    between atoms: O3_22  and  C24_23
REMARK    4  A    between atoms: O4_24  and  C25_25
REMARK                            x       y       z     vdW  Elec       q    Type
REMARK                         _______ _______ _______ _____ _____    ______ ____
ROOT
ATOM      1  O1  UNK     0       6.353   1.290   0.488  0.00  0.00    +0.000 OA
ATOM      2  O2  UNK     0       5.519   1.470  -1.623  0.00  0.00    +0.000 OA
ATOM      3  N5  UNK     0       0.482  -1.338   0.687  0.00  0.00    +0.000 N 
ATOM      4  C6  UNK     0       1.292  -2.006   1.703  0.00  0.00    +0.000 C 
ATOM      5  C7  UNK     0       2.280  -1.001   2.282  0.00  0.00    +0.000 C 
ATOM      6  C8  UNK     0       1.135  -0.709  -0.471  0.00  0.00    +0.000 C 
ATOM      7  C9  UNK     0       3.071  -0.339   1.186  0.00  0.00    +0.000 A 
ATOM      8  C10 UNK     0       2.522  -0.183  -0.126  0.00  0.00    +0.000 A 
ATOM      9  C11 UNK     0      -0.952  -1.383   0.764  0.00  0.00    +0.000 C 
ATOM     10  C12 UNK     0       0.258   0.388  -1.026  0.00  0.00    +0.000 C 
ATOM     11  C13 UNK     0      -1.706  -0.534   0.036  0.00  0.00    +0.000 A 
ATOM     12  C14 UNK     0      -1.076   0.396  -0.833  0.00  0.00    +0.000 A 
ATOM     13  C15 UNK     0       4.359   0.161   1.476  0.00  0.00    +0.000 A 
ATOM     14  C16 UNK     0       3.317   0.399  -1.143  0.00  0.00    +0.000 A 
ATOM     15  C17 UNK     0       5.082   0.751   0.446  0.00  0.00    +0.000 A 
ATOM     16  C18 UNK     0       4.585   0.860  -0.809  0.00  0.00    +0.000 A 
ATOM     17  C19 UNK     0      -3.120  -0.535   0.170  0.00  0.00    +0.000 A 
ATOM     18  C20 UNK     0      -1.857   1.339  -1.512  0.00  0.00    +0.000 A 
ATOM     19  C21 UNK     0      -3.891   0.418  -0.548  0.00  0.00    +0.000 A 
ATOM     20  C22 UNK     0       6.674   1.767  -0.826  0.00  0.00    +0.000 C 
ATOM     21  C23 UNK     0      -3.240   1.349  -1.374  0.00  0.00    +0.000 A 
ENDROOT
BRANCH  17  22
ATOM     22  O3  UNK     0      -3.698  -1.496   1.028  0.00  0.00    +0.000 OA
ATOM     23  C24 UNK     0      -5.082  -1.671   1.312  0.00  0.00    +0.000 C 
ENDBRANCH  17  22
BRANCH  19  24
ATOM     24  O4  UNK     0      -5.290   0.426  -0.427  0.00  0.00    +0.000 OA
ATOM     25  C25 UNK     0      -6.165   1.330  -1.094  0.00  0.00    +0.000 C 
ENDBRANCH  19  24
TORSDOF 2
