REMARK  Name = C:\Users\Maximilian\Desktop\Conformers\converted_pdb\conformers_pdb\Berberine_conf_4.pdb
REMARK  4 active torsions:
REMARK  status: ('A' for Active; 'I' for Inactive)
REMARK    1  A    between atoms: C19_17  and  O3_22
REMARK    2  A    between atoms: C21_19  and  O4_24
REMARK    3  A    between atoms: O3_22  and  C24_23
REMARK    4  A    between atoms: O4_24  and  C25_25
REMARK                            x       y       z     vdW  Elec       q    Type
REMARK                         _______ _______ _______ _____ _____    ______ ____
ROOT
ATOM      1  O1  UNK     0       6.284  -0.027  -0.553  0.00  0.00    +0.000 OA
ATOM      2  O2  UNK     0       5.147   1.943  -0.446  0.00  0.00    +0.000 OA
ATOM      3  N5  UNK     0       0.273  -1.461   0.745  0.00  0.00    +0.000 N 
ATOM      4  C6  UNK     0       0.961  -2.762   0.648  0.00  0.00    +0.000 C 
ATOM      5  C7  UNK     0       2.404  -2.709   1.175  0.00  0.00    +0.000 C 
ATOM      6  C8  UNK     0       0.946  -0.290   1.337  0.00  0.00    +0.000 C 
ATOM      7  C9  UNK     0       3.085  -1.445   0.726  0.00  0.00    +0.000 A 
ATOM      8  C10 UNK     0       2.367  -0.219   0.800  0.00  0.00    +0.000 A 
ATOM      9  C11 UNK     0      -1.060  -1.371   0.218  0.00  0.00    +0.000 C 
ATOM     10  C12 UNK     0       0.148   0.977   1.141  0.00  0.00    +0.000 C 
ATOM     11  C13 UNK     0      -1.708  -0.193   0.135  0.00  0.00    +0.000 A 
ATOM     12  C14 UNK     0      -1.083   0.992   0.597  0.00  0.00    +0.000 A 
ATOM     13  C15 UNK     0       4.424  -1.466   0.283  0.00  0.00    +0.000 A 
ATOM     14  C16 UNK     0       3.009   0.987   0.418  0.00  0.00    +0.000 A 
ATOM     15  C17 UNK     0       5.004  -0.258  -0.088  0.00  0.00    +0.000 A 
ATOM     16  C18 UNK     0       4.327   0.915  -0.023  0.00  0.00    +0.000 A 
ATOM     17  C19 UNK     0      -3.017  -0.135  -0.418  0.00  0.00    +0.000 A 
ATOM     18  C20 UNK     0      -1.764   2.213   0.502  0.00  0.00    +0.000 A 
ATOM     19  C21 UNK     0      -3.686   1.115  -0.504  0.00  0.00    +0.000 A 
ATOM     20  C22 UNK     0       6.419   1.379  -0.798  0.00  0.00    +0.000 C 
ATOM     21  C23 UNK     0      -3.042   2.274  -0.040  0.00  0.00    +0.000 A 
ENDROOT
BRANCH  17  22
ATOM     22  O3  UNK     0      -3.598  -1.343  -0.862  0.00  0.00    +0.000 OA
ATOM     23  C24 UNK     0      -4.886  -1.515  -1.442  0.00  0.00    +0.000 C 
ENDBRANCH  17  22
BRANCH  19  24
ATOM     24  O4  UNK     0      -4.978   1.186  -1.049  0.00  0.00    +0.000 OA
ATOM     25  C25 UNK     0      -5.745   2.378  -1.187  0.00  0.00    +0.000 C 
ENDBRANCH  19  24
TORSDOF 2
