REMARK  Name = C:\Users\Maximilian\Desktop\Conformers\converted_pdb\conformers_pdb\Berberine_conf_2.pdb
REMARK  4 active torsions:
REMARK  status: ('A' for Active; 'I' for Inactive)
REMARK    1  A    between atoms: C19_17  and  O3_22
REMARK    2  A    between atoms: C21_19  and  O4_24
REMARK    3  A    between atoms: O3_22  and  C24_23
REMARK    4  A    between atoms: O4_24  and  C25_25
REMARK                            x       y       z     vdW  Elec       q    Type
REMARK                         _______ _______ _______ _____ _____    ______ ____
ROOT
ATOM      1  O1  UNK     0       6.305  -0.207   0.005  0.00  0.00    +0.000 OA
ATOM      2  O2  UNK     0       5.221   1.758   0.390  0.00  0.00    +0.000 OA
ATOM      3  N5  UNK     0       0.164  -1.288  -0.993  0.00  0.00    +0.000 N 
ATOM      4  C6  UNK     0       0.819  -2.590  -1.215  0.00  0.00    +0.000 C 
ATOM      5  C7  UNK     0       2.212  -2.451  -1.852  0.00  0.00    +0.000 C 
ATOM      6  C8  UNK     0       0.816  -0.031  -1.403  0.00  0.00    +0.000 C 
ATOM      7  C9  UNK     0       2.966  -1.308  -1.228  0.00  0.00    +0.000 A 
ATOM      8  C10 UNK     0       2.280  -0.083  -0.996  0.00  0.00    +0.000 A 
ATOM      9  C11 UNK     0      -1.114  -1.289  -0.339  0.00  0.00    +0.000 C 
ATOM     10  C12 UNK     0       0.076   1.182  -0.890  0.00  0.00    +0.000 C 
ATOM     11  C13 UNK     0      -1.718  -0.143   0.033  0.00  0.00    +0.000 A 
ATOM     12  C14 UNK     0      -1.101   1.103  -0.244  0.00  0.00    +0.000 A 
ATOM     13  C15 UNK     0       4.337  -1.431  -0.923  0.00  0.00    +0.000 A 
ATOM     14  C16 UNK     0       2.989   1.016  -0.445  0.00  0.00    +0.000 A 
ATOM     15  C17 UNK     0       4.982  -0.327  -0.378  0.00  0.00    +0.000 A 
ATOM     16  C18 UNK     0       4.337   0.843  -0.149  0.00  0.00    +0.000 A 
ATOM     17  C19 UNK     0      -2.971  -0.180   0.704  0.00  0.00    +0.000 A 
ATOM     18  C20 UNK     0      -1.736   2.288   0.151  0.00  0.00    +0.000 A 
ATOM     19  C21 UNK     0      -3.593   1.035   1.094  0.00  0.00    +0.000 A 
ATOM     20  C22 UNK     0       6.502   1.122   0.507  0.00  0.00    +0.000 C 
ATOM     21  C23 UNK     0      -2.959   2.255   0.809  0.00  0.00    +0.000 A 
ENDROOT
BRANCH  17  22
ATOM     22  O3  UNK     0      -3.546  -1.446   0.954  0.00  0.00    +0.000 OA
ATOM     23  C24 UNK     0      -4.783  -1.715   1.605  0.00  0.00    +0.000 C 
ENDBRANCH  17  22
BRANCH  19  24
ATOM     24  O4  UNK     0      -4.830   1.012   1.759  0.00  0.00    +0.000 OA
ATOM     25  C25 UNK     0      -5.547   2.162   2.197  0.00  0.00    +0.000 C 
ENDBRANCH  19  24
TORSDOF 2
