REMARK  Name = C:\Users\Maximilian\Desktop\Conformers\converted_pdb\conformers_pdb\Betulinic Acid_conf_15.pdb
REMARK  10 active torsions:
REMARK  status: ('A' for Active; 'I' for Inactive)
REMARK    1  A    between atoms: C4_1  and  C21_18
REMARK    2  A    between atoms: C5_2  and  C22_19
REMARK    3  A    between atoms: C8_5  and  C25_22
REMARK    4  A    between atoms: C11_8  and  C28_27
REMARK    5  A    between atoms: C18_15  and  C29_25
REMARK    6  A    between atoms: C18_15  and  C30_26
REMARK    7  A    between atoms: C19_16  and  C31_31
REMARK    8  A    between atoms: C26_23  and  O1_34
REMARK    9  A    between atoms: C28_27  and  O2_29
REMARK   10  A    between atoms: C31_31  and  C32_33
REMARK                            x       y       z     vdW  Elec       q    Type
REMARK                         _______ _______ _______ _____ _____    ______ ____
ROOT
ATOM      1  C4  UNK     0      -0.460   0.572   0.834  0.00  0.00    +0.000 C 
ATOM      2  C5  UNK     0       0.975  -0.122   1.163  0.00  0.00    +0.000 C 
ATOM      3  C6  UNK     0      -1.007  -0.006  -0.544  0.00  0.00    +0.000 C 
ATOM      4  C7  UNK     0       1.954   0.115  -0.072  0.00  0.00    +0.000 C 
ATOM      5  C8  UNK     0      -2.529   0.284  -0.937  0.00  0.00    +0.000 C 
ATOM      6  C9  UNK     0       3.390  -0.387   0.241  0.00  0.00    +0.000 C 
ATOM      7  C10 UNK     0      -3.427  -0.036   0.318  0.00  0.00    +0.000 C 
ATOM      8  C11 UNK     0       3.981   0.392   1.435  0.00  0.00    +0.000 C 
ATOM      9  C12 UNK     0      -1.511   0.270   1.953  0.00  0.00    +0.000 C 
ATOM     10  C13 UNK     0       0.014   0.219  -1.692  0.00  0.00    +0.000 C 
ATOM     11  C14 UNK     0       1.644   0.474   2.463  0.00  0.00    +0.000 C 
ATOM     12  C15 UNK     0       1.369  -0.437  -1.382  0.00  0.00    +0.000 C 
ATOM     13  C16 UNK     0      -2.939   0.703   1.589  0.00  0.00    +0.000 C 
ATOM     14  C17 UNK     0       3.127   0.056   2.681  0.00  0.00    +0.000 C 
ATOM     15  C18 UNK     0      -4.999   0.014   0.081  0.00  0.00    +0.000 C 
ATOM     16  C19 UNK     0       4.497  -0.361  -0.831  0.00  0.00    +0.000 C 
ATOM     17  C20 UNK     0      -2.939  -0.693  -2.115  0.00  0.00    +0.000 C 
ATOM     18  C21 UNK     0      -0.309   2.133   0.775  0.00  0.00    +0.000 C 
ATOM     19  C22 UNK     0       0.809  -1.666   1.454  0.00  0.00    +0.000 C 
ATOM     20  C23 UNK     0       5.414  -0.142   1.470  0.00  0.00    +0.000 C 
ATOM     21  C24 UNK     0       5.812  -0.306  -0.010  0.00  0.00    +0.000 C 
ATOM     22  C25 UNK     0      -2.737   1.748  -1.439  0.00  0.00    +0.000 C 
ATOM     23  C26 UNK     0      -5.377  -0.483  -1.369  0.00  0.00    +0.000 C 
ATOM     24  C27 UNK     0      -4.297  -1.399  -1.953  0.00  0.00    +0.000 C 
ATOM     25  C29 UNK     0      -5.680  -0.956   1.087  0.00  0.00    +0.000 C 
ATOM     26  C30 UNK     0      -5.602   1.419   0.352  0.00  0.00    +0.000 C 
ENDROOT
BRANCH  16  27
ATOM     27  C31 UNK     0       4.472  -1.550  -1.795  0.00  0.00    +0.000 C 
ATOM     28  C33 UNK     0       4.579  -2.817  -1.358  0.00  0.00    +0.000 C 
ATOM     29  C32 UNK     0       4.385  -1.312  -3.282  0.00  0.00    +0.000 C 
ENDBRANCH  16  27
BRANCH   8  30
ATOM     30  C28 UNK     0       4.052   1.917   1.245  0.00  0.00    +0.000 C 
ATOM     31  O3  UNK     0       4.392   2.419   0.138  0.00  0.00    +0.000 OA
BRANCH  30  32
ATOM     32  O2  UNK     0       3.830   2.774   2.322  0.00  0.00    +0.000 OA
ATOM     33  H79 UNK     0       3.895   3.777   2.209  0.00  0.00    +0.000 HD
ENDBRANCH  30  32
ENDBRANCH   8  30
BRANCH  23  34
ATOM     34  O1  UNK     0      -5.601   0.577  -2.267  0.00  0.00    +0.000 OA
ATOM     35  H75 UNK     0      -6.562   0.820  -2.208  0.00  0.00    +0.000 HD
ENDBRANCH  23  34
TORSDOF 4
