REMARK  Name = C:\Users\Maximilian\Desktop\Conformers\converted_pdb\conformers_pdb\Betulinic Acid_conf_8.pdb
REMARK  10 active torsions:
REMARK  status: ('A' for Active; 'I' for Inactive)
REMARK    1  A    between atoms: C4_1  and  C21_18
REMARK    2  A    between atoms: C5_2  and  C22_19
REMARK    3  A    between atoms: C8_5  and  C25_22
REMARK    4  A    between atoms: C11_8  and  C28_27
REMARK    5  A    between atoms: C18_15  and  C29_25
REMARK    6  A    between atoms: C18_15  and  C30_26
REMARK    7  A    between atoms: C19_16  and  C31_31
REMARK    8  A    between atoms: C26_23  and  O1_34
REMARK    9  A    between atoms: C28_27  and  O2_29
REMARK   10  A    between atoms: C31_31  and  C32_33
REMARK                            x       y       z     vdW  Elec       q    Type
REMARK                         _______ _______ _______ _____ _____    ______ ____
ROOT
ATOM      1  C4  UNK     0      -0.497   0.907  -0.287  0.00  0.00    +0.000 C 
ATOM      2  C5  UNK     0       0.995   1.110   0.327  0.00  0.00    +0.000 C 
ATOM      3  C6  UNK     0      -1.012  -0.554   0.078  0.00  0.00    +0.000 C 
ATOM      4  C7  UNK     0       1.929  -0.016  -0.288  0.00  0.00    +0.000 C 
ATOM      5  C8  UNK     0      -2.553  -0.862  -0.212  0.00  0.00    +0.000 C 
ATOM      6  C9  UNK     0       3.421   0.217   0.081  0.00  0.00    +0.000 C 
ATOM      7  C10 UNK     0      -3.394   0.280   0.485  0.00  0.00    +0.000 C 
ATOM      8  C11 UNK     0       3.906   1.578  -0.455  0.00  0.00    +0.000 C 
ATOM      9  C12 UNK     0      -1.492   1.962   0.299  0.00  0.00    +0.000 C 
ATOM     10  C13 UNK     0      -0.019  -1.658  -0.400  0.00  0.00    +0.000 C 
ATOM     11  C14 UNK     0       1.598   2.539   0.009  0.00  0.00    +0.000 C 
ATOM     12  C15 UNK     0       1.425  -1.424   0.074  0.00  0.00    +0.000 C 
ATOM     13  C16 UNK     0      -2.973   1.686  -0.014  0.00  0.00    +0.000 C 
ATOM     14  C17 UNK     0       3.120   2.679   0.290  0.00  0.00    +0.000 C 
ATOM     15  C18 UNK     0      -4.957   0.042   0.579  0.00  0.00    +0.000 C 
ATOM     16  C19 UNK     0       4.509  -0.785  -0.359  0.00  0.00    +0.000 C 
ATOM     17  C20 UNK     0      -2.937  -2.214   0.475  0.00  0.00    +0.000 C 
ATOM     18  C21 UNK     0      -0.494   1.111  -1.846  0.00  0.00    +0.000 C 
ATOM     19  C22 UNK     0       0.991   1.020   1.904  0.00  0.00    +0.000 C 
ATOM     20  C23 UNK     0       5.399   1.520  -0.133  0.00  0.00    +0.000 C 
ATOM     21  C24 UNK     0       5.803   0.066  -0.435  0.00  0.00    +0.000 C 
ATOM     22  C25 UNK     0      -2.841  -0.996  -1.745  0.00  0.00    +0.000 C 
ATOM     23  C26 UNK     0      -5.213  -1.353   1.233  0.00  0.00    +0.000 C 
ATOM     24  C27 UNK     0      -4.447  -2.486   0.538  0.00  0.00    +0.000 C 
ATOM     25  C29 UNK     0      -5.596   1.106   1.517  0.00  0.00    +0.000 C 
ATOM     26  C30 UNK     0      -5.678   0.155  -0.789  0.00  0.00    +0.000 C 
ENDROOT
BRANCH  16  27
ATOM     27  C31 UNK     0       4.670  -1.984   0.576  0.00  0.00    +0.000 C 
ATOM     28  C33 UNK     0       5.008  -1.829   1.868  0.00  0.00    +0.000 C 
ATOM     29  C32 UNK     0       4.501  -3.384   0.044  0.00  0.00    +0.000 C 
ENDBRANCH  16  27
BRANCH   8  30
ATOM     30  C28 UNK     0       3.767   1.782  -1.971  0.00  0.00    +0.000 C 
ATOM     31  O3  UNK     0       3.766   0.806  -2.769  0.00  0.00    +0.000 OA
BRANCH  30  32
ATOM     32  O2  UNK     0       3.732   3.073  -2.493  0.00  0.00    +0.000 OA
ATOM     33  H79 UNK     0       3.669   3.228  -3.493  0.00  0.00    +0.000 HD
ENDBRANCH  30  32
ENDBRANCH   8  30
BRANCH  23  34
ATOM     34  O1  UNK     0      -6.588  -1.650   1.231  0.00  0.00    +0.000 OA
ATOM     35  H75 UNK     0      -6.729  -2.377   1.893  0.00  0.00    +0.000 HD
ENDBRANCH  23  34
TORSDOF 4
