REMARK  Name = C:\Users\Maximilian\Desktop\Conformers\converted_pdb\conformers_pdb\Betulinic Acid_conf_11.pdb
REMARK  10 active torsions:
REMARK  status: ('A' for Active; 'I' for Inactive)
REMARK    1  A    between atoms: C4_1  and  C21_18
REMARK    2  A    between atoms: C5_2  and  C22_19
REMARK    3  A    between atoms: C8_5  and  C25_22
REMARK    4  A    between atoms: C11_8  and  C28_27
REMARK    5  A    between atoms: C18_15  and  C29_25
REMARK    6  A    between atoms: C18_15  and  C30_26
REMARK    7  A    between atoms: C19_16  and  C31_31
REMARK    8  A    between atoms: C26_23  and  O1_34
REMARK    9  A    between atoms: C28_27  and  O2_29
REMARK   10  A    between atoms: C31_31  and  C32_33
REMARK                            x       y       z     vdW  Elec       q    Type
REMARK                         _______ _______ _______ _____ _____    ______ ____
ROOT
ATOM      1  C4  UNK     0       0.424  -0.941  -0.250  0.00  0.00    +0.000 C 
ATOM      2  C5  UNK     0      -1.023  -1.014   0.484  0.00  0.00    +0.000 C 
ATOM      3  C6  UNK     0       1.011   0.524  -0.067  0.00  0.00    +0.000 C 
ATOM      4  C7  UNK     0      -1.971   0.054  -0.211  0.00  0.00    +0.000 C 
ATOM      5  C8  UNK     0       2.541   0.733  -0.475  0.00  0.00    +0.000 C 
ATOM      6  C9  UNK     0      -3.427  -0.077   0.308  0.00  0.00    +0.000 C 
ATOM      7  C10 UNK     0       3.381  -0.371   0.283  0.00  0.00    +0.000 C 
ATOM      8  C11 UNK     0      -4.007  -1.457  -0.036  0.00  0.00    +0.000 C 
ATOM      9  C12 UNK     0       1.416  -1.985   0.362  0.00  0.00    +0.000 C 
ATOM     10  C13 UNK     0       0.031   1.613  -0.612  0.00  0.00    +0.000 C 
ATOM     11  C14 UNK     0      -1.663  -2.461   0.416  0.00  0.00    +0.000 C 
ATOM     12  C15 UNK     0      -1.406   1.484  -0.077  0.00  0.00    +0.000 C 
ATOM     13  C16 UNK     0       2.882  -1.799  -0.057  0.00  0.00    +0.000 C 
ATOM     14  C17 UNK     0      -3.189  -2.537   0.712  0.00  0.00    +0.000 C 
ATOM     15  C18 UNK     0       4.955  -0.191   0.267  0.00  0.00    +0.000 C 
ATOM     16  C19 UNK     0      -4.521   0.903  -0.150  0.00  0.00    +0.000 C 
ATOM     17  C20 UNK     0       3.011   2.133   0.048  0.00  0.00    +0.000 C 
ATOM     18  C21 UNK     0       0.298  -1.285  -1.779  0.00  0.00    +0.000 C 
ATOM     19  C22 UNK     0      -0.914  -0.708   2.032  0.00  0.00    +0.000 C 
ATOM     20  C23 UNK     0      -5.445  -1.304   0.491  0.00  0.00    +0.000 C 
ATOM     21  C24 UNK     0      -5.838   0.150   0.159  0.00  0.00    +0.000 C 
ATOM     22  C25 UNK     0       2.743   0.701  -2.028  0.00  0.00    +0.000 C 
ATOM     23  C26 UNK     0       5.288   1.255   0.765  0.00  0.00    +0.000 C 
ATOM     24  C27 UNK     0       4.530   2.351   0.003  0.00  0.00    +0.000 C 
ATOM     25  C29 UNK     0       5.609  -1.179   1.274  0.00  0.00    +0.000 C 
ATOM     26  C30 UNK     0       5.584  -0.475  -1.122  0.00  0.00    +0.000 C 
ENDROOT
BRANCH  16  27
ATOM     27  C31 UNK     0      -4.478   2.268   0.534  0.00  0.00    +0.000 C 
ATOM     28  C33 UNK     0      -4.450   3.387  -0.207  0.00  0.00    +0.000 C 
ATOM     29  C32 UNK     0      -4.527   2.402   2.037  0.00  0.00    +0.000 C 
ENDBRANCH  16  27
BRANCH   8  30
ATOM     30  C28 UNK     0      -4.060  -1.747  -1.552  0.00  0.00    +0.000 C 
ATOM     31  O3  UNK     0      -5.087  -1.458  -2.228  0.00  0.00    +0.000 OA
BRANCH  30  32
ATOM     32  O2  UNK     0      -2.971  -2.298  -2.222  0.00  0.00    +0.000 OA
ATOM     33  H79 UNK     0      -3.005  -2.468  -3.220  0.00  0.00    +0.000 HD
ENDBRANCH  30  32
ENDBRANCH   8  30
BRANCH  23  34
ATOM     34  O1  UNK     0       6.673   1.514   0.757  0.00  0.00    +0.000 OA
ATOM     35  H75 UNK     0       6.961   1.638  -0.184  0.00  0.00    +0.000 HD
ENDBRANCH  23  34
TORSDOF 4
