REMARK  Name = C:\Users\Maximilian\Desktop\Conformers\converted_pdb\conformers_pdb\Betulinic Acid_conf_6.pdb
REMARK  10 active torsions:
REMARK  status: ('A' for Active; 'I' for Inactive)
REMARK    1  A    between atoms: C4_1  and  C21_18
REMARK    2  A    between atoms: C5_2  and  C22_19
REMARK    3  A    between atoms: C8_5  and  C25_22
REMARK    4  A    between atoms: C11_8  and  C28_27
REMARK    5  A    between atoms: C18_15  and  C29_25
REMARK    6  A    between atoms: C18_15  and  C30_26
REMARK    7  A    between atoms: C19_16  and  C31_31
REMARK    8  A    between atoms: C26_23  and  O1_34
REMARK    9  A    between atoms: C28_27  and  O2_29
REMARK   10  A    between atoms: C31_31  and  C32_33
REMARK                            x       y       z     vdW  Elec       q    Type
REMARK                         _______ _______ _______ _____ _____    ______ ____
ROOT
ATOM      1  C4  UNK     0      -0.444   0.162   0.980  0.00  0.00    +0.000 C 
ATOM      2  C5  UNK     0       1.011  -0.548   0.984  0.00  0.00    +0.000 C 
ATOM      3  C6  UNK     0      -1.064   0.039  -0.481  0.00  0.00    +0.000 C 
ATOM      4  C7  UNK     0       1.906   0.230  -0.071  0.00  0.00    +0.000 C 
ATOM      5  C8  UNK     0      -2.602   0.432  -0.641  0.00  0.00    +0.000 C 
ATOM      6  C9  UNK     0       3.393  -0.200   0.030  0.00  0.00    +0.000 C 
ATOM      7  C10 UNK     0      -3.422  -0.345   0.459  0.00  0.00    +0.000 C 
ATOM      8  C11 UNK     0       3.948   0.089   1.438  0.00  0.00    +0.000 C 
ATOM      9  C12 UNK     0      -1.402  -0.534   2.000  0.00  0.00    +0.000 C 
ATOM     10  C13 UNK     0      -0.116   0.650  -1.566  0.00  0.00    +0.000 C 
ATOM     11  C14 UNK     0       1.681  -0.531   2.421  0.00  0.00    +0.000 C 
ATOM     12  C15 UNK     0       1.326   0.116  -1.495  0.00  0.00    +0.000 C 
ATOM     13  C16 UNK     0      -2.870  -0.097   1.883  0.00  0.00    +0.000 C 
ATOM     14  C17 UNK     0       3.204  -0.831   2.432  0.00  0.00    +0.000 C 
ATOM     15  C18 UNK     0      -5.007  -0.241   0.353  0.00  0.00    +0.000 C 
ATOM     16  C19 UNK     0       4.444   0.384  -0.936  0.00  0.00    +0.000 C 
ATOM     17  C20 UNK     0      -3.099  -0.028  -2.069  0.00  0.00    +0.000 C 
ATOM     18  C21 UNK     0      -0.316   1.680   1.402  0.00  0.00    +0.000 C 
ATOM     19  C22 UNK     0       0.931  -2.080   0.609  0.00  0.00    +0.000 C 
ATOM     20  C23 UNK     0       5.431  -0.233   1.252  0.00  0.00    +0.000 C 
ATOM     21  C24 UNK     0       5.774   0.304  -0.147  0.00  0.00    +0.000 C 
ATOM     22  C25 UNK     0      -2.804   1.973  -0.534  0.00  0.00    +0.000 C 
ATOM     23  C26 UNK     0      -5.485  -0.134  -1.144  0.00  0.00    +0.000 C 
ATOM     24  C27 UNK     0      -4.461  -0.746  -2.107  0.00  0.00    +0.000 C 
ATOM     25  C29 UNK     0      -5.625  -1.541   0.943  0.00  0.00    +0.000 C 
ATOM     26  C30 UNK     0      -5.583   0.935   1.188  0.00  0.00    +0.000 C 
ENDROOT
BRANCH  16  27
ATOM     27  C31 UNK     0       4.533  -0.360  -2.268  0.00  0.00    +0.000 C 
ATOM     28  C33 UNK     0       4.363   0.304  -3.422  0.00  0.00    +0.000 C 
ATOM     29  C32 UNK     0       4.859  -1.833  -2.328  0.00  0.00    +0.000 C 
ENDBRANCH  16  27
BRANCH   8  30
ATOM     30  C28 UNK     0       3.843   1.550   1.902  0.00  0.00    +0.000 C 
ATOM     31  O3  UNK     0       3.893   1.822   3.132  0.00  0.00    +0.000 OA
BRANCH  30  32
ATOM     32  O2  UNK     0       3.797   2.600   0.989  0.00  0.00    +0.000 OA
ATOM     33  H79 UNK     0       3.760   3.562   1.303  0.00  0.00    +0.000 HD
ENDBRANCH  30  32
ENDBRANCH   8  30
BRANCH  23  34
ATOM     34  O1  UNK     0      -5.762   1.192  -1.519  0.00  0.00    +0.000 OA
ATOM     35  H75 UNK     0      -6.285   1.158  -2.363  0.00  0.00    +0.000 HD
ENDBRANCH  23  34
TORSDOF 4
