REMARK  Name = C:\Users\Maximilian\Desktop\Conformers\converted_pdb\conformers_pdb\Betulinic Acid_conf_2.pdb
REMARK  10 active torsions:
REMARK  status: ('A' for Active; 'I' for Inactive)
REMARK    1  A    between atoms: C4_1  and  C21_18
REMARK    2  A    between atoms: C5_2  and  C22_19
REMARK    3  A    between atoms: C8_5  and  C25_22
REMARK    4  A    between atoms: C11_8  and  C28_27
REMARK    5  A    between atoms: C18_15  and  C29_25
REMARK    6  A    between atoms: C18_15  and  C30_26
REMARK    7  A    between atoms: C19_16  and  C31_31
REMARK    8  A    between atoms: C26_23  and  O1_34
REMARK    9  A    between atoms: C28_27  and  O2_29
REMARK   10  A    between atoms: C31_31  and  C32_33
REMARK                            x       y       z     vdW  Elec       q    Type
REMARK                         _______ _______ _______ _____ _____    ______ ____
ROOT
ATOM      1  C4  UNK     0       0.539  -0.983  -0.109  0.00  0.00    +0.000 C 
ATOM      2  C5  UNK     0      -0.890  -1.045   0.668  0.00  0.00    +0.000 C 
ATOM      3  C6  UNK     0       0.977   0.541  -0.277  0.00  0.00    +0.000 C 
ATOM      4  C7  UNK     0      -1.940  -0.169  -0.141  0.00  0.00    +0.000 C 
ATOM      5  C8  UNK     0       2.467   0.814  -0.786  0.00  0.00    +0.000 C 
ATOM      6  C9  UNK     0      -3.375  -0.314   0.440  0.00  0.00    +0.000 C 
ATOM      7  C10 UNK     0       3.436  -0.011   0.149  0.00  0.00    +0.000 C 
ATOM      8  C11 UNK     0      -3.847  -1.778   0.372  0.00  0.00    +0.000 C 
ATOM      9  C12 UNK     0       1.651  -1.737   0.693  0.00  0.00    +0.000 C 
ATOM     10  C13 UNK     0      -0.124   1.383  -0.984  0.00  0.00    +0.000 C 
ATOM     11  C14 UNK     0      -1.450  -2.518   0.799  0.00  0.00    +0.000 C 
ATOM     12  C15 UNK     0      -1.479   1.291  -0.271  0.00  0.00    +0.000 C 
ATOM     13  C16 UNK     0       3.076  -1.519   0.158  0.00  0.00    +0.000 C 
ATOM     14  C17 UNK     0      -2.922  -2.610   1.291  0.00  0.00    +0.000 C 
ATOM     15  C18 UNK     0       4.981   0.311   0.021  0.00  0.00    +0.000 C 
ATOM     16  C19 UNK     0      -4.552   0.507  -0.126  0.00  0.00    +0.000 C 
ATOM     17  C20 UNK     0       2.803   2.330  -0.585  0.00  0.00    +0.000 C 
ATOM     18  C21 UNK     0       0.440  -1.694  -1.504  0.00  0.00    +0.000 C 
ATOM     19  C22 UNK     0      -0.753  -0.525   2.152  0.00  0.00    +0.000 C 
ATOM     20  C23 UNK     0      -5.295  -1.651   0.846  0.00  0.00    +0.000 C 
ATOM     21  C24 UNK     0      -5.801  -0.353   0.194  0.00  0.00    +0.000 C 
ATOM     22  C25 UNK     0       2.633   0.479  -2.305  0.00  0.00    +0.000 C 
ATOM     23  C26 UNK     0       5.183   1.850   0.188  0.00  0.00    +0.000 C 
ATOM     24  C27 UNK     0       4.291   2.676  -0.747  0.00  0.00    +0.000 C 
ATOM     25  C29 UNK     0       5.761  -0.376   1.178  0.00  0.00    +0.000 C 
ATOM     26  C30 UNK     0       5.604  -0.192  -1.307  0.00  0.00    +0.000 C 
ENDROOT
BRANCH  16  27
ATOM     27  C31 UNK     0      -4.667   1.909   0.472  0.00  0.00    +0.000 C 
ATOM     28  C33 UNK     0      -4.655   2.986  -0.329  0.00  0.00    +0.000 C 
ATOM     29  C32 UNK     0      -4.843   2.122   1.957  0.00  0.00    +0.000 C 
ENDBRANCH  16  27
BRANCH   8  30
ATOM     30  C28 UNK     0      -3.876  -2.397  -1.034  0.00  0.00    +0.000 C 
ATOM     31  O3  UNK     0      -3.896  -3.652  -1.164  0.00  0.00    +0.000 OA
BRANCH  30  32
ATOM     32  O2  UNK     0      -3.974  -1.607  -2.177  0.00  0.00    +0.000 OA
ATOM     33  H79 UNK     0      -4.026  -2.026  -3.097  0.00  0.00    +0.000 HD
ENDBRANCH  30  32
ENDBRANCH   8  30
BRANCH  23  34
ATOM     34  O1  UNK     0       6.530   2.195  -0.032  0.00  0.00    +0.000 OA
ATOM     35  H75 UNK     0       6.676   3.081   0.393  0.00  0.00    +0.000 HD
ENDBRANCH  23  34
TORSDOF 4
