REMARK  Name = C:\Users\Maximilian\Desktop\Conformers\converted_pdb\conformers_pdb\Betulinic Acid_conf_19.pdb
REMARK  10 active torsions:
REMARK  status: ('A' for Active; 'I' for Inactive)
REMARK    1  A    between atoms: C4_1  and  C21_18
REMARK    2  A    between atoms: C5_2  and  C22_19
REMARK    3  A    between atoms: C8_5  and  C25_22
REMARK    4  A    between atoms: C11_8  and  C28_27
REMARK    5  A    between atoms: C18_15  and  C29_25
REMARK    6  A    between atoms: C18_15  and  C30_26
REMARK    7  A    between atoms: C19_16  and  C31_31
REMARK    8  A    between atoms: C26_23  and  O1_34
REMARK    9  A    between atoms: C28_27  and  O2_29
REMARK   10  A    between atoms: C31_31  and  C32_33
REMARK                            x       y       z     vdW  Elec       q    Type
REMARK                         _______ _______ _______ _____ _____    ______ ____
ROOT
ATOM      1  C4  UNK     0      -0.578   0.752   0.451  0.00  0.00    +0.000 C 
ATOM      2  C5  UNK     0       0.920   0.567   1.038  0.00  0.00    +0.000 C 
ATOM      3  C6  UNK     0      -0.980  -0.564  -0.346  0.00  0.00    +0.000 C 
ATOM      4  C7  UNK     0       1.878   0.361  -0.211  0.00  0.00    +0.000 C 
ATOM      5  C8  UNK     0      -2.509  -0.692  -0.784  0.00  0.00    +0.000 C 
ATOM      6  C9  UNK     0       3.367   0.438   0.210  0.00  0.00    +0.000 C 
ATOM      7  C10 UNK     0      -3.408  -0.436   0.487  0.00  0.00    +0.000 C 
ATOM      8  C11 UNK     0       3.681   1.821   0.810  0.00  0.00    +0.000 C 
ATOM      9  C12 UNK     0      -1.602   0.975   1.612  0.00  0.00    +0.000 C 
ATOM     10  C13 UNK     0       0.053  -0.902  -1.474  0.00  0.00    +0.000 C 
ATOM     11  C14 UNK     0       1.378   1.805   1.918  0.00  0.00    +0.000 C 
ATOM     12  C15 UNK     0       1.517  -0.919  -0.992  0.00  0.00    +0.000 C 
ATOM     13  C16 UNK     0      -3.074   0.909   1.178  0.00  0.00    +0.000 C 
ATOM     14  C17 UNK     0       2.910   1.925   2.147  0.00  0.00    +0.000 C 
ATOM     15  C18 UNK     0      -4.968  -0.698   0.304  0.00  0.00    +0.000 C 
ATOM     16  C19 UNK     0       4.484   0.187  -0.824  0.00  0.00    +0.000 C 
ATOM     17  C20 UNK     0      -2.769  -2.160  -1.303  0.00  0.00    +0.000 C 
ATOM     18  C21 UNK     0      -0.643   2.014  -0.496  0.00  0.00    +0.000 C 
ATOM     19  C22 UNK     0       1.033  -0.665   2.019  0.00  0.00    +0.000 C 
ATOM     20  C23 UNK     0       5.203   1.759   0.954  0.00  0.00    +0.000 C 
ATOM     21  C24 UNK     0       5.692   0.996  -0.289  0.00  0.00    +0.000 C 
ATOM     22  C25 UNK     0      -2.850   0.294  -1.940  0.00  0.00    +0.000 C 
ATOM     23  C26 UNK     0      -5.247  -1.868  -0.713  0.00  0.00    +0.000 C 
ATOM     24  C27 UNK     0      -4.059  -2.834  -0.801  0.00  0.00    +0.000 C 
ATOM     25  C29 UNK     0      -5.563  -1.128   1.676  0.00  0.00    +0.000 C 
ATOM     26  C30 UNK     0      -5.739   0.583  -0.124  0.00  0.00    +0.000 C 
ENDROOT
BRANCH  16  27
ATOM     27  C31 UNK     0       4.830  -1.292  -1.000  0.00  0.00    +0.000 C 
ATOM     28  C33 UNK     0       4.754  -1.863  -2.212  0.00  0.00    +0.000 C 
ATOM     29  C32 UNK     0       5.296  -2.135   0.161  0.00  0.00    +0.000 C 
ENDBRANCH  16  27
BRANCH   8  30
ATOM     30  C28 UNK     0       3.337   3.009  -0.102  0.00  0.00    +0.000 C 
ATOM     31  O3  UNK     0       2.904   4.088   0.387  0.00  0.00    +0.000 OA
BRANCH  30  32
ATOM     32  O2  UNK     0       3.573   2.951  -1.473  0.00  0.00    +0.000 OA
ATOM     33  H79 UNK     0       3.309   3.715  -2.082  0.00  0.00    +0.000 HD
ENDBRANCH  30  32
ENDBRANCH   8  30
BRANCH  23  34
ATOM     34  O1  UNK     0      -5.581  -1.392  -1.994  0.00  0.00    +0.000 OA
ATOM     35  H75 UNK     0      -5.938  -2.159  -2.511  0.00  0.00    +0.000 HD
ENDBRANCH  23  34
TORSDOF 4
