REMARK  Name = C:\Users\Maximilian\Desktop\Conformers\converted_pdb\conformers_pdb\Betulinic Acid_conf_17.pdb
REMARK  10 active torsions:
REMARK  status: ('A' for Active; 'I' for Inactive)
REMARK    1  A    between atoms: C4_1  and  C21_18
REMARK    2  A    between atoms: C5_2  and  C22_19
REMARK    3  A    between atoms: C8_5  and  C25_22
REMARK    4  A    between atoms: C11_8  and  C28_27
REMARK    5  A    between atoms: C18_15  and  C29_25
REMARK    6  A    between atoms: C18_15  and  C30_26
REMARK    7  A    between atoms: C19_16  and  C31_31
REMARK    8  A    between atoms: C26_23  and  O1_34
REMARK    9  A    between atoms: C28_27  and  O2_29
REMARK   10  A    between atoms: C31_31  and  C32_33
REMARK                            x       y       z     vdW  Elec       q    Type
REMARK                         _______ _______ _______ _____ _____    ______ ____
ROOT
ATOM      1  C4  UNK     0       0.498   0.514   0.839  0.00  0.00    +0.000 C 
ATOM      2  C5  UNK     0      -0.954   1.124   0.429  0.00  0.00    +0.000 C 
ATOM      3  C6  UNK     0       1.001  -0.462  -0.317  0.00  0.00    +0.000 C 
ATOM      4  C7  UNK     0      -1.946  -0.085   0.148  0.00  0.00    +0.000 C 
ATOM      5  C8  UNK     0       2.516  -0.966  -0.232  0.00  0.00    +0.000 C 
ATOM      6  C9  UNK     0      -3.402   0.411  -0.084  0.00  0.00    +0.000 C 
ATOM      7  C10 UNK     0       3.425   0.314  -0.055  0.00  0.00    +0.000 C 
ATOM      8  C11 UNK     0      -3.926   1.166   1.153  0.00  0.00    +0.000 C 
ATOM      9  C12 UNK     0       1.555   1.651   1.028  0.00  0.00    +0.000 C 
ATOM     10  C13 UNK     0      -0.045  -1.571  -0.628  0.00  0.00    +0.000 C 
ATOM     11  C14 UNK     0      -1.572   2.039   1.560  0.00  0.00    +0.000 C 
ATOM     12  C15 UNK     0      -1.425  -0.996  -0.974  0.00  0.00    +0.000 C 
ATOM     13  C16 UNK     0       3.001   1.151   1.179  0.00  0.00    +0.000 C 
ATOM     14  C17 UNK     0      -3.059   2.433   1.333  0.00  0.00    +0.000 C 
ATOM     15  C18 UNK     0       4.986   0.097  -0.218  0.00  0.00    +0.000 C 
ATOM     16  C19 UNK     0      -4.532  -0.576  -0.445  0.00  0.00    +0.000 C 
ATOM     17  C20 UNK     0       2.904  -1.635  -1.596  0.00  0.00    +0.000 C 
ATOM     18  C21 UNK     0       0.410  -0.241   2.212  0.00  0.00    +0.000 C 
ATOM     19  C22 UNK     0      -0.840   2.058  -0.839  0.00  0.00    +0.000 C 
ATOM     20  C23 UNK     0      -5.380   1.424   0.756  0.00  0.00    +0.000 C 
ATOM     21  C24 UNK     0      -5.822   0.131   0.047  0.00  0.00    +0.000 C 
ATOM     22  C25 UNK     0       2.713  -2.028   0.900  0.00  0.00    +0.000 C 
ATOM     23  C26 UNK     0       5.240  -0.618  -1.585  0.00  0.00    +0.000 C 
ATOM     24  C27 UNK     0       4.408  -1.896  -1.768  0.00  0.00    +0.000 C 
ATOM     25  C29 UNK     0       5.706   1.474  -0.285  0.00  0.00    +0.000 C 
ATOM     26  C30 UNK     0       5.617  -0.688   0.961  0.00  0.00    +0.000 C 
ENDROOT
BRANCH  16  27
ATOM     27  C31 UNK     0      -4.606  -0.930  -1.931  0.00  0.00    +0.000 C 
ATOM     28  C33 UNK     0      -4.798   0.012  -2.871  0.00  0.00    +0.000 C 
ATOM     29  C32 UNK     0      -4.516  -2.369  -2.369  0.00  0.00    +0.000 C 
ENDBRANCH  16  27
BRANCH   8  30
ATOM     30  C28 UNK     0      -3.942   0.367   2.464  0.00  0.00    +0.000 C 
ATOM     31  O3  UNK     0      -3.974  -0.893   2.469  0.00  0.00    +0.000 OA
BRANCH  30  32
ATOM     32  O2  UNK     0      -4.016   1.043   3.680  0.00  0.00    +0.000 OA
ATOM     33  H79 UNK     0      -4.056   0.536   4.556  0.00  0.00    +0.000 HD
ENDBRANCH  30  32
ENDBRANCH   8  30
BRANCH  23  34
ATOM     34  O1  UNK     0       6.609  -0.880  -1.798  0.00  0.00    +0.000 OA
ATOM     35  H75 UNK     0       6.869  -1.653  -1.232  0.00  0.00    +0.000 HD
ENDBRANCH  23  34
TORSDOF 4
