REMARK  Name = C:\Users\Maximilian\Desktop\Conformers\converted_pdb\conformers_pdb\Betulinic Acid_conf_12.pdb
REMARK  10 active torsions:
REMARK  status: ('A' for Active; 'I' for Inactive)
REMARK    1  A    between atoms: C4_1  and  C21_18
REMARK    2  A    between atoms: C5_2  and  C22_19
REMARK    3  A    between atoms: C8_5  and  C25_22
REMARK    4  A    between atoms: C11_8  and  C28_27
REMARK    5  A    between atoms: C18_15  and  C29_25
REMARK    6  A    between atoms: C18_15  and  C30_26
REMARK    7  A    between atoms: C19_16  and  C31_31
REMARK    8  A    between atoms: C26_23  and  O1_34
REMARK    9  A    between atoms: C28_27  and  O2_29
REMARK   10  A    between atoms: C31_31  and  C32_33
REMARK                            x       y       z     vdW  Elec       q    Type
REMARK                         _______ _______ _______ _____ _____    ______ ____
ROOT
ATOM      1  C4  UNK     0      -0.416  -0.124   0.926  0.00  0.00    +0.000 C 
ATOM      2  C5  UNK     0       0.975  -0.920   0.680  0.00  0.00    +0.000 C 
ATOM      3  C6  UNK     0      -1.035   0.267  -0.485  0.00  0.00    +0.000 C 
ATOM      4  C7  UNK     0       1.945   0.067  -0.092  0.00  0.00    +0.000 C 
ATOM      5  C8  UNK     0      -2.525   0.835  -0.465  0.00  0.00    +0.000 C 
ATOM      6  C9  UNK     0       3.386  -0.503  -0.166  0.00  0.00    +0.000 C 
ATOM      7  C10 UNK     0      -3.410  -0.226   0.302  0.00  0.00    +0.000 C 
ATOM      8  C11 UNK     0       3.957  -0.718   1.247  0.00  0.00    +0.000 C 
ATOM      9  C12 UNK     0      -1.435  -1.015   1.711  0.00  0.00    +0.000 C 
ATOM     10  C13 UNK     0      -0.032   1.082  -1.366  0.00  0.00    +0.000 C 
ATOM     11  C14 UNK     0       1.639  -1.422   2.030  0.00  0.00    +0.000 C 
ATOM     12  C15 UNK     0       1.373   0.460  -1.467  0.00  0.00    +0.000 C 
ATOM     13  C16 UNK     0      -2.879  -0.484   1.736  0.00  0.00    +0.000 C 
ATOM     14  C17 UNK     0       3.130  -1.842   1.913  0.00  0.00    +0.000 C 
ATOM     15  C18 UNK     0      -4.977  -0.040   0.195  0.00  0.00    +0.000 C 
ATOM     16  C19 UNK     0       4.488   0.256  -0.934  0.00  0.00    +0.000 C 
ATOM     17  C20 UNK     0      -3.049   0.922  -1.936  0.00  0.00    +0.000 C 
ATOM     18  C21 UNK     0      -0.178   1.175   1.785  0.00  0.00    +0.000 C 
ATOM     19  C22 UNK     0       0.762  -2.239  -0.164  0.00  0.00    +0.000 C 
ATOM     20  C23 UNK     0       5.408  -1.082   0.938  0.00  0.00    +0.000 C 
ATOM     21  C24 UNK     0       5.801  -0.147  -0.218  0.00  0.00    +0.000 C 
ATOM     22  C25 UNK     0      -2.598   2.266   0.163  0.00  0.00    +0.000 C 
ATOM     23  C26 UNK     0      -5.366   0.079  -1.312  0.00  0.00    +0.000 C 
ATOM     24  C27 UNK     0      -4.562   1.151  -2.058  0.00  0.00    +0.000 C 
ATOM     25  C29 UNK     0      -5.698  -1.302   0.748  0.00  0.00    +0.000 C 
ATOM     26  C30 UNK     0      -5.505   1.173   1.005  0.00  0.00    +0.000 C 
ENDROOT
BRANCH  16  27
ATOM     27  C31 UNK     0       4.530  -0.072  -2.427  0.00  0.00    +0.000 C 
ATOM     28  C33 UNK     0       4.760  -1.322  -2.865  0.00  0.00    +0.000 C 
ATOM     29  C32 UNK     0       4.339   1.020  -3.447  0.00  0.00    +0.000 C 
ENDBRANCH  16  27
BRANCH   8  30
ATOM     30  C28 UNK     0       3.972   0.528   2.145  0.00  0.00    +0.000 C 
ATOM     31  O3  UNK     0       3.989   0.402   3.401  0.00  0.00    +0.000 OA
BRANCH  30  32
ATOM     32  O2  UNK     0       4.053   1.807   1.604  0.00  0.00    +0.000 OA
ATOM     33  H79 UNK     0       4.093   2.625   2.202  0.00  0.00    +0.000 HD
ENDBRANCH  30  32
ENDBRANCH   8  30
BRANCH  23  34
ATOM     34  O1  UNK     0      -6.740   0.355  -1.448  0.00  0.00    +0.000 OA
ATOM     35  H75 UNK     0      -6.996   0.103  -2.372  0.00  0.00    +0.000 HD
ENDBRANCH  23  34
TORSDOF 4
