REMARK  Name = C:\Users\Maximilian\Desktop\Conformers\converted_pdb\conformers_pdb\Betulinic Acid_conf_5.pdb
REMARK  10 active torsions:
REMARK  status: ('A' for Active; 'I' for Inactive)
REMARK    1  A    between atoms: C4_1  and  C21_18
REMARK    2  A    between atoms: C5_2  and  C22_19
REMARK    3  A    between atoms: C8_5  and  C25_22
REMARK    4  A    between atoms: C11_8  and  C28_27
REMARK    5  A    between atoms: C18_15  and  C29_25
REMARK    6  A    between atoms: C18_15  and  C30_26
REMARK    7  A    between atoms: C19_16  and  C31_31
REMARK    8  A    between atoms: C26_23  and  O1_34
REMARK    9  A    between atoms: C28_27  and  O2_29
REMARK   10  A    between atoms: C31_31  and  C32_33
REMARK                            x       y       z     vdW  Elec       q    Type
REMARK                         _______ _______ _______ _____ _____    ______ ____
ROOT
ATOM      1  C4  UNK     0       0.429  -0.523   0.798  0.00  0.00    +0.000 C 
ATOM      2  C5  UNK     0      -1.090   0.032   0.979  0.00  0.00    +0.000 C 
ATOM      3  C6  UNK     0       1.069   0.136  -0.503  0.00  0.00    +0.000 C 
ATOM      4  C7  UNK     0      -1.903  -0.325  -0.337  0.00  0.00    +0.000 C 
ATOM      5  C8  UNK     0       2.639  -0.068  -0.714  0.00  0.00    +0.000 C 
ATOM      6  C9  UNK     0      -3.416  -0.003  -0.176  0.00  0.00    +0.000 C 
ATOM      7  C10 UNK     0       3.349   0.383   0.624  0.00  0.00    +0.000 C 
ATOM      8  C11 UNK     0      -4.027  -0.808   0.986  0.00  0.00    +0.000 C 
ATOM      9  C12 UNK     0       1.308  -0.163   2.040  0.00  0.00    +0.000 C 
ATOM     10  C13 UNK     0       0.194  -0.111  -1.770  0.00  0.00    +0.000 C 
ATOM     11  C14 UNK     0      -1.823  -0.593   2.234  0.00  0.00    +0.000 C 
ATOM     12  C15 UNK     0      -1.270   0.320  -1.584  0.00  0.00    +0.000 C 
ATOM     13  C16 UNK     0       2.814  -0.405   1.847  0.00  0.00    +0.000 C 
ATOM     14  C17 UNK     0      -3.353  -0.329   2.292  0.00  0.00    +0.000 C 
ATOM     15  C18 UNK     0       4.923   0.543   0.567  0.00  0.00    +0.000 C 
ATOM     16  C19 UNK     0      -4.396  -0.196  -1.351  0.00  0.00    +0.000 C 
ATOM     17  C20 UNK     0       3.123   0.890  -1.855  0.00  0.00    +0.000 C 
ATOM     18  C21 UNK     0       0.443  -2.089   0.680  0.00  0.00    +0.000 C 
ATOM     19  C22 UNK     0      -1.108   1.591   1.235  0.00  0.00    +0.000 C 
ATOM     20  C23 UNK     0      -5.509  -0.455   0.851  0.00  0.00    +0.000 C 
ATOM     21  C24 UNK     0      -5.764  -0.449  -0.667  0.00  0.00    +0.000 C 
ATOM     22  C25 UNK     0       2.982  -1.535  -1.134  0.00  0.00    +0.000 C 
ATOM     23  C26 UNK     0       5.280   1.476  -0.637  0.00  0.00    +0.000 C 
ATOM     24  C27 UNK     0       4.649   1.024  -1.963  0.00  0.00    +0.000 C 
ATOM     25  C29 UNK     0       5.428   1.253   1.856  0.00  0.00    +0.000 C 
ATOM     26  C30 UNK     0       5.670  -0.812   0.472  0.00  0.00    +0.000 C 
ENDROOT
BRANCH  16  27
ATOM     27  C31 UNK     0      -4.457   1.000  -2.300  0.00  0.00    +0.000 C 
ATOM     28  C33 UNK     0      -4.191   0.840  -3.606  0.00  0.00    +0.000 C 
ATOM     29  C32 UNK     0      -4.861   2.373  -1.815  0.00  0.00    +0.000 C 
ENDBRANCH  16  27
BRANCH   8  30
ATOM     30  C28 UNK     0      -3.904  -2.334   0.867  0.00  0.00    +0.000 C 
ATOM     31  O3  UNK     0      -4.041  -3.054   1.895  0.00  0.00    +0.000 OA
BRANCH  30  32
ATOM     32  O2  UNK     0      -3.748  -2.958  -0.368  0.00  0.00    +0.000 OA
ATOM     33  H79 UNK     0      -3.694  -3.967  -0.437  0.00  0.00    +0.000 HD
ENDBRANCH  30  32
ENDBRANCH   8  30
BRANCH  23  34
ATOM     34  O1  UNK     0       6.672   1.645  -0.778  0.00  0.00    +0.000 OA
ATOM     35  H75 UNK     0       7.043   0.835  -1.212  0.00  0.00    +0.000 HD
ENDBRANCH  23  34
TORSDOF 4
