REMARK  Name = C:\Users\Maximilian\Desktop\Conformers\converted_pdb\conformers_pdb\Betulinic Acid_conf_4.pdb
REMARK  10 active torsions:
REMARK  status: ('A' for Active; 'I' for Inactive)
REMARK    1  A    between atoms: C4_1  and  C21_18
REMARK    2  A    between atoms: C5_2  and  C22_19
REMARK    3  A    between atoms: C8_5  and  C25_22
REMARK    4  A    between atoms: C11_8  and  C28_27
REMARK    5  A    between atoms: C18_15  and  C29_25
REMARK    6  A    between atoms: C18_15  and  C30_26
REMARK    7  A    between atoms: C19_16  and  C31_31
REMARK    8  A    between atoms: C26_23  and  O1_34
REMARK    9  A    between atoms: C28_27  and  O2_29
REMARK   10  A    between atoms: C31_31  and  C32_33
REMARK                            x       y       z     vdW  Elec       q    Type
REMARK                         _______ _______ _______ _____ _____    ______ ____
ROOT
ATOM      1  C4  UNK     0       0.503   0.994  -0.014  0.00  0.00    +0.000 C 
ATOM      2  C5  UNK     0      -1.049   0.932  -0.502  0.00  0.00    +0.000 C 
ATOM      3  C6  UNK     0       1.054  -0.489   0.154  0.00  0.00    +0.000 C 
ATOM      4  C7  UNK     0      -1.873   0.043   0.530  0.00  0.00    +0.000 C 
ATOM      5  C8  UNK     0       2.627  -0.690   0.352  0.00  0.00    +0.000 C 
ATOM      6  C9  UNK     0      -3.396   0.070   0.217  0.00  0.00    +0.000 C 
ATOM      7  C10 UNK     0       3.369   0.156  -0.752  0.00  0.00    +0.000 C 
ATOM      8  C11 UNK     0      -3.945   1.507   0.306  0.00  0.00    +0.000 C 
ATOM      9  C12 UNK     0       1.400   1.736  -1.058  0.00  0.00    +0.000 C 
ATOM     10  C13 UNK     0       0.170  -1.319   1.126  0.00  0.00    +0.000 C 
ATOM     11  C14 UNK     0      -1.716   2.361  -0.579  0.00  0.00    +0.000 C 
ATOM     12  C15 UNK     0      -1.291  -1.374   0.658  0.00  0.00    +0.000 C 
ATOM     13  C16 UNK     0       2.905   1.634  -0.768  0.00  0.00    +0.000 C 
ATOM     14  C17 UNK     0      -3.257   2.345  -0.797  0.00  0.00    +0.000 C 
ATOM     15  C18 UNK     0       4.945  -0.043  -0.844  0.00  0.00    +0.000 C 
ATOM     16  C19 UNK     0      -4.392  -0.779   1.033  0.00  0.00    +0.000 C 
ATOM     17  C20 UNK     0       2.969  -2.219   0.128  0.00  0.00    +0.000 C 
ATOM     18  C21 UNK     0       0.619   1.799   1.327  0.00  0.00    +0.000 C 
ATOM     19  C22 UNK     0      -1.161   0.342  -1.962  0.00  0.00    +0.000 C 
ATOM     20  C23 UNK     0      -5.442   1.270   0.106  0.00  0.00    +0.000 C 
ATOM     21  C24 UNK     0      -5.736  -0.022   0.891  0.00  0.00    +0.000 C 
ATOM     22  C25 UNK     0       3.087  -0.299   1.794  0.00  0.00    +0.000 C 
ATOM     23  C26 UNK     0       5.364  -1.512  -0.462  0.00  0.00    +0.000 C 
ATOM     24  C27 UNK     0       4.225  -2.509  -0.715  0.00  0.00    +0.000 C 
ATOM     25  C29 UNK     0       5.384   0.198  -2.317  0.00  0.00    +0.000 C 
ATOM     26  C30 UNK     0       5.735   0.977   0.018  0.00  0.00    +0.000 C 
ENDROOT
BRANCH  16  27
ATOM     27  C31 UNK     0      -4.507  -2.226   0.555  0.00  0.00    +0.000 C 
ATOM     28  C33 UNK     0      -4.285  -3.237   1.410  0.00  0.00    +0.000 C 
ATOM     29  C32 UNK     0      -4.917  -2.561  -0.859  0.00  0.00    +0.000 C 
ENDBRANCH  16  27
BRANCH   8  30
ATOM     30  C28 UNK     0      -3.767   2.206   1.663  0.00  0.00    +0.000 C 
ATOM     31  O3  UNK     0      -3.632   1.549   2.730  0.00  0.00    +0.000 OA
BRANCH  30  32
ATOM     32  O2  UNK     0      -3.849   3.594   1.738  0.00  0.00    +0.000 OA
ATOM     33  H79 UNK     0      -3.763   4.074   2.626  0.00  0.00    +0.000 HD
ENDBRANCH  30  32
ENDBRANCH   8  30
BRANCH  23  34
ATOM     34  O1  UNK     0       5.795  -1.608   0.873  0.00  0.00    +0.000 OA
ATOM     35  H75 UNK     0       6.271  -2.474   0.969  0.00  0.00    +0.000 HD
ENDBRANCH  23  34
TORSDOF 4
