REMARK  Name = C:\Users\Maximilian\Desktop\Conformers\converted_pdb\conformers_pdb\Betulinic Acid_conf_10.pdb
REMARK  10 active torsions:
REMARK  status: ('A' for Active; 'I' for Inactive)
REMARK    1  A    between atoms: C4_1  and  C21_18
REMARK    2  A    between atoms: C5_2  and  C22_19
REMARK    3  A    between atoms: C8_5  and  C25_22
REMARK    4  A    between atoms: C11_8  and  C28_27
REMARK    5  A    between atoms: C18_15  and  C29_25
REMARK    6  A    between atoms: C18_15  and  C30_26
REMARK    7  A    between atoms: C19_16  and  C31_31
REMARK    8  A    between atoms: C26_23  and  O1_34
REMARK    9  A    between atoms: C28_27  and  O2_29
REMARK   10  A    between atoms: C31_31  and  C32_33
REMARK                            x       y       z     vdW  Elec       q    Type
REMARK                         _______ _______ _______ _____ _____    ______ ____
ROOT
ATOM      1  C4  UNK     0      -0.477  -0.965  -0.101  0.00  0.00    +0.000 C 
ATOM      2  C5  UNK     0       1.026  -0.862  -0.712  0.00  0.00    +0.000 C 
ATOM      3  C6  UNK     0      -1.027   0.505   0.165  0.00  0.00    +0.000 C 
ATOM      4  C7  UNK     0       1.924  -0.080   0.338  0.00  0.00    +0.000 C 
ATOM      5  C8  UNK     0      -2.580   0.635   0.514  0.00  0.00    +0.000 C 
ATOM      6  C9  UNK     0       3.423  -0.107  -0.071  0.00  0.00    +0.000 C 
ATOM      7  C10 UNK     0      -3.375  -0.128  -0.619  0.00  0.00    +0.000 C 
ATOM      8  C11 UNK     0       3.943  -1.555  -0.154  0.00  0.00    +0.000 C 
ATOM      9  C12 UNK     0      -1.435  -1.704  -1.094  0.00  0.00    +0.000 C 
ATOM     10  C13 UNK     0      -0.071   1.326   1.087  0.00  0.00    +0.000 C 
ATOM     11  C14 UNK     0       1.662  -2.281  -1.008  0.00  0.00    +0.000 C 
ATOM     12  C15 UNK     0       1.387   1.339   0.595  0.00  0.00    +0.000 C 
ATOM     13  C16 UNK     0      -2.927  -1.607  -0.734  0.00  0.00    +0.000 C 
ATOM     14  C17 UNK     0       3.188  -2.259  -1.303  0.00  0.00    +0.000 C 
ATOM     15  C18 UNK     0      -4.942   0.103  -0.657  0.00  0.00    +0.000 C 
ATOM     16  C19 UNK     0       4.483   0.640   0.766  0.00  0.00    +0.000 C 
ATOM     17  C20 UNK     0      -2.989   2.145   0.443  0.00  0.00    +0.000 C 
ATOM     18  C21 UNK     0      -0.486  -1.800   1.230  0.00  0.00    +0.000 C 
ATOM     19  C22 UNK     0       1.036  -0.117  -2.105  0.00  0.00    +0.000 C 
ATOM     20  C23 UNK     0       5.435  -1.329  -0.404  0.00  0.00    +0.000 C 
ATOM     21  C24 UNK     0       5.801  -0.125   0.481  0.00  0.00    +0.000 C 
ATOM     22  C25 UNK     0      -2.898   0.112   1.956  0.00  0.00    +0.000 C 
ATOM     23  C26 UNK     0      -5.222   1.640  -0.675  0.00  0.00    +0.000 C 
ATOM     24  C27 UNK     0      -4.505   2.390   0.456  0.00  0.00    +0.000 C 
ATOM     25  C29 UNK     0      -5.529  -0.480  -1.974  0.00  0.00    +0.000 C 
ATOM     26  C30 UNK     0      -5.689  -0.583   0.515  0.00  0.00    +0.000 C 
ENDROOT
BRANCH  16  27
ATOM     27  C31 UNK     0       4.606   2.129   0.439  0.00  0.00    +0.000 C 
ATOM     28  C33 UNK     0       4.911   2.557  -0.801  0.00  0.00    +0.000 C 
ATOM     29  C32 UNK     0       4.434   3.157   1.528  0.00  0.00    +0.000 C 
ENDBRANCH  16  27
BRANCH   8  30
ATOM     30  C28 UNK     0       3.807  -2.381   1.134  0.00  0.00    +0.000 C 
ATOM     31  O3  UNK     0       3.797  -1.833   2.270  0.00  0.00    +0.000 OA
BRANCH  30  32
ATOM     32  O2  UNK     0       3.787  -3.773   1.061  0.00  0.00    +0.000 OA
ATOM     33  H79 UNK     0       3.716  -4.337   1.899  0.00  0.00    +0.000 HD
ENDBRANCH  30  32
ENDBRANCH   8  30
BRANCH  23  34
ATOM     34  O1  UNK     0      -6.605   1.888  -0.600  0.00  0.00    +0.000 OA
ATOM     35  H75 UNK     0      -6.743   2.842  -0.843  0.00  0.00    +0.000 HD
ENDBRANCH  23  34
TORSDOF 4
