REMARK  Name = C:\Users\Maximilian\Desktop\Conformers\converted_pdb\conformers_pdb\Betulinic Acid_conf_14.pdb
REMARK  10 active torsions:
REMARK  status: ('A' for Active; 'I' for Inactive)
REMARK    1  A    between atoms: C4_1  and  C21_18
REMARK    2  A    between atoms: C5_2  and  C22_19
REMARK    3  A    between atoms: C8_5  and  C25_22
REMARK    4  A    between atoms: C11_8  and  C28_27
REMARK    5  A    between atoms: C18_15  and  C29_25
REMARK    6  A    between atoms: C18_15  and  C30_26
REMARK    7  A    between atoms: C19_16  and  C31_31
REMARK    8  A    between atoms: C26_23  and  O1_34
REMARK    9  A    between atoms: C28_27  and  O2_29
REMARK   10  A    between atoms: C31_31  and  C32_33
REMARK                            x       y       z     vdW  Elec       q    Type
REMARK                         _______ _______ _______ _____ _____    ______ ____
ROOT
ATOM      1  C4  UNK     0      -0.650  -0.127   0.856  0.00  0.00    +0.000 C 
ATOM      2  C5  UNK     0       0.802  -0.849   0.984  0.00  0.00    +0.000 C 
ATOM      3  C6  UNK     0      -0.915   0.242  -0.672  0.00  0.00    +0.000 C 
ATOM      4  C7  UNK     0       1.899   0.132   0.387  0.00  0.00    +0.000 C 
ATOM      5  C8  UNK     0      -2.390   0.729  -1.050  0.00  0.00    +0.000 C 
ATOM      6  C9  UNK     0       3.339  -0.401   0.635  0.00  0.00    +0.000 C 
ATOM      7  C10 UNK     0      -3.397  -0.353  -0.490  0.00  0.00    +0.000 C 
ATOM      8  C11 UNK     0       3.616  -0.551   2.143  0.00  0.00    +0.000 C 
ATOM      9  C12 UNK     0      -1.794  -1.070   1.351  0.00  0.00    +0.000 C 
ATOM     10  C13 UNK     0       0.236   1.107  -1.267  0.00  0.00    +0.000 C 
ATOM     11  C14 UNK     0       1.181  -1.199   2.480  0.00  0.00    +0.000 C 
ATOM     12  C15 UNK     0       1.618   0.462  -1.088  0.00  0.00    +0.000 C 
ATOM     13  C16 UNK     0      -3.214  -0.571   1.035  0.00  0.00    +0.000 C 
ATOM     14  C17 UNK     0       2.658  -1.635   2.690  0.00  0.00    +0.000 C 
ATOM     15  C18 UNK     0      -4.900  -0.232  -0.975  0.00  0.00    +0.000 C 
ATOM     16  C19 UNK     0       4.572   0.346   0.083  0.00  0.00    +0.000 C 
ATOM     17  C20 UNK     0      -2.533   0.744  -2.610  0.00  0.00    +0.000 C 
ATOM     18  C21 UNK     0      -0.712   1.159   1.754  0.00  0.00    +0.000 C 
ATOM     19  C22 UNK     0       0.822  -2.234   0.225  0.00  0.00    +0.000 C 
ATOM     20  C23 UNK     0       5.096  -0.935   2.141  0.00  0.00    +0.000 C 
ATOM     21  C24 UNK     0       5.720  -0.053   1.045  0.00  0.00    +0.000 C 
ATOM     22  C25 UNK     0      -2.676   2.175  -0.522  0.00  0.00    +0.000 C 
ATOM     23  C26 UNK     0      -4.908  -0.173  -2.538  0.00  0.00    +0.000 C 
ATOM     24  C27 UNK     0      -3.976   0.905  -3.113  0.00  0.00    +0.000 C 
ATOM     25  C29 UNK     0      -5.690  -1.508  -0.566  0.00  0.00    +0.000 C 
ATOM     26  C30 UNK     0      -5.642   0.980  -0.357  0.00  0.00    +0.000 C 
ENDROOT
BRANCH  16  27
ATOM     27  C31 UNK     0       4.907   0.011  -1.372  0.00  0.00    +0.000 C 
ATOM     28  C33 UNK     0       5.200  -1.245  -1.756  0.00  0.00    +0.000 C 
ATOM     29  C32 UNK     0       4.973   1.107  -2.404  0.00  0.00    +0.000 C 
ENDBRANCH  16  27
BRANCH   8  30
ATOM     30  C28 UNK     0       3.476   0.733   2.974  0.00  0.00    +0.000 C 
ATOM     31  O3  UNK     0       3.364   0.656   4.228  0.00  0.00    +0.000 OA
BRANCH  30  32
ATOM     32  O2  UNK     0       3.569   1.994   2.390  0.00  0.00    +0.000 OA
ATOM     33  H79 UNK     0       3.519   2.833   2.954  0.00  0.00    +0.000 HD
ENDBRANCH  30  32
ENDBRANCH   8  30
BRANCH  23  34
ATOM     34  O1  UNK     0      -6.212  -0.031  -3.055  0.00  0.00    +0.000 OA
ATOM     35  H75 UNK     0      -6.499   0.909  -2.920  0.00  0.00    +0.000 HD
ENDBRANCH  23  34
TORSDOF 4
