REMARK  Name = C:\Users\Maximilian\Desktop\Conformers\converted_pdb\conformers_pdb\Betulinic Acid_conf_16.pdb
REMARK  10 active torsions:
REMARK  status: ('A' for Active; 'I' for Inactive)
REMARK    1  A    between atoms: C4_1  and  C21_18
REMARK    2  A    between atoms: C5_2  and  C22_19
REMARK    3  A    between atoms: C8_5  and  C25_22
REMARK    4  A    between atoms: C11_8  and  C28_27
REMARK    5  A    between atoms: C18_15  and  C29_25
REMARK    6  A    between atoms: C18_15  and  C30_26
REMARK    7  A    between atoms: C19_16  and  C31_31
REMARK    8  A    between atoms: C26_23  and  O1_34
REMARK    9  A    between atoms: C28_27  and  O2_29
REMARK   10  A    between atoms: C31_31  and  C32_33
REMARK                            x       y       z     vdW  Elec       q    Type
REMARK                         _______ _______ _______ _____ _____    ______ ____
ROOT
ATOM      1  C4  UNK     0       0.516  -0.965  -0.278  0.00  0.00    +0.000 C 
ATOM      2  C5  UNK     0      -0.979  -1.115   0.350  0.00  0.00    +0.000 C 
ATOM      3  C6  UNK     0       1.045   0.518  -0.033  0.00  0.00    +0.000 C 
ATOM      4  C7  UNK     0      -1.903   0.036  -0.246  0.00  0.00    +0.000 C 
ATOM      5  C8  UNK     0       2.581   0.823  -0.362  0.00  0.00    +0.000 C 
ATOM      6  C9  UNK     0      -3.388  -0.139   0.178  0.00  0.00    +0.000 C 
ATOM      7  C10 UNK     0       3.455  -0.281   0.354  0.00  0.00    +0.000 C 
ATOM      8  C11 UNK     0      -3.943  -1.477  -0.340  0.00  0.00    +0.000 C 
ATOM      9  C12 UNK     0       1.524  -1.947   0.402  0.00  0.00    +0.000 C 
ATOM     10  C13 UNK     0       0.050   1.582  -0.580  0.00  0.00    +0.000 C 
ATOM     11  C14 UNK     0      -1.642  -2.511   0.015  0.00  0.00    +0.000 C 
ATOM     12  C15 UNK     0      -1.339   1.433   0.048  0.00  0.00    +0.000 C 
ATOM     13  C16 UNK     0       2.989  -1.716  -0.010  0.00  0.00    +0.000 C 
ATOM     14  C17 UNK     0      -3.155  -2.612   0.360  0.00  0.00    +0.000 C 
ATOM     15  C18 UNK     0       5.035  -0.074   0.339  0.00  0.00    +0.000 C 
ATOM     16  C19 UNK     0      -4.457   0.908  -0.202  0.00  0.00    +0.000 C 
ATOM     17  C20 UNK     0       2.955   2.233   0.249  0.00  0.00    +0.000 C 
ATOM     18  C21 UNK     0       0.501  -1.329  -1.804  0.00  0.00    +0.000 C 
ATOM     19  C22 UNK     0      -0.935  -1.040   1.923  0.00  0.00    +0.000 C 
ATOM     20  C23 UNK     0      -5.415  -1.364   0.051  0.00  0.00    +0.000 C 
ATOM     21  C24 UNK     0      -5.779   0.103  -0.242  0.00  0.00    +0.000 C 
ATOM     22  C25 UNK     0       2.814   0.868  -1.909  0.00  0.00    +0.000 C 
ATOM     23  C26 UNK     0       5.427   1.453   0.467  0.00  0.00    +0.000 C 
ATOM     24  C27 UNK     0       4.290   2.327   1.017  0.00  0.00    +0.000 C 
ATOM     25  C29 UNK     0       5.632  -0.801   1.583  0.00  0.00    +0.000 C 
ATOM     26  C30 UNK     0       5.720  -0.721  -0.894  0.00  0.00    +0.000 C 
ENDROOT
BRANCH  16  27
ATOM     27  C31 UNK     0      -4.543   2.075   0.781  0.00  0.00    +0.000 C 
ATOM     28  C33 UNK     0      -4.398   3.333   0.340  0.00  0.00    +0.000 C 
ATOM     29  C32 UNK     0      -4.830   1.854   2.246  0.00  0.00    +0.000 C 
ENDBRANCH  16  27
BRANCH   8  30
ATOM     30  C28 UNK     0      -3.887  -1.669  -1.865  0.00  0.00    +0.000 C 
ATOM     31  O3  UNK     0      -3.943  -2.830  -2.355  0.00  0.00    +0.000 OA
BRANCH  30  32
ATOM     32  O2  UNK     0      -3.876  -0.575  -2.726  0.00  0.00    +0.000 OA
ATOM     33  H79 UNK     0      -3.889  -0.701  -3.733  0.00  0.00    +0.000 HD
ENDBRANCH  30  32
ENDBRANCH   8  30
BRANCH  23  34
ATOM     34  O1  UNK     0       5.999   2.011  -0.691  0.00  0.00    +0.000 OA
ATOM     35  H75 UNK     0       5.316   2.020  -1.400  0.00  0.00    +0.000 HD
ENDBRANCH  23  34
TORSDOF 4
