REMARK  Name = C:\Users\Maximilian\Desktop\Conformers\converted_pdb\conformers_pdb\Betulinic Acid_conf_18.pdb
REMARK  10 active torsions:
REMARK  status: ('A' for Active; 'I' for Inactive)
REMARK    1  A    between atoms: C4_1  and  C21_18
REMARK    2  A    between atoms: C5_2  and  C22_19
REMARK    3  A    between atoms: C8_5  and  C25_22
REMARK    4  A    between atoms: C11_8  and  C28_27
REMARK    5  A    between atoms: C18_15  and  C29_25
REMARK    6  A    between atoms: C18_15  and  C30_26
REMARK    7  A    between atoms: C19_16  and  C31_31
REMARK    8  A    between atoms: C26_23  and  O1_34
REMARK    9  A    between atoms: C28_27  and  O2_29
REMARK   10  A    between atoms: C31_31  and  C32_33
REMARK                            x       y       z     vdW  Elec       q    Type
REMARK                         _______ _______ _______ _____ _____    ______ ____
ROOT
ATOM      1  C4  UNK     0       0.449   0.946  -0.365  0.00  0.00    +0.000 C 
ATOM      2  C5  UNK     0      -1.016   0.595  -0.981  0.00  0.00    +0.000 C 
ATOM      3  C6  UNK     0       1.030  -0.346   0.368  0.00  0.00    +0.000 C 
ATOM      4  C7  UNK     0      -1.944   0.070   0.197  0.00  0.00    +0.000 C 
ATOM      5  C8  UNK     0       2.562  -0.294   0.818  0.00  0.00    +0.000 C 
ATOM      6  C9  UNK     0      -3.412  -0.127  -0.277  0.00  0.00    +0.000 C 
ATOM      7  C10 UNK     0       3.405   0.138  -0.446  0.00  0.00    +0.000 C 
ATOM      8  C11 UNK     0      -4.008   1.202  -0.780  0.00  0.00    +0.000 C 
ATOM      9  C12 UNK     0       1.447   1.375  -1.489  0.00  0.00    +0.000 C 
ATOM     10  C13 UNK     0       0.046  -0.889   1.445  0.00  0.00    +0.000 C 
ATOM     11  C14 UNK     0      -1.708   1.845  -1.657  0.00  0.00    +0.000 C 
ATOM     12  C15 UNK     0      -1.350  -1.175   0.874  0.00  0.00    +0.000 C 
ATOM     13  C16 UNK     0       2.910   1.485  -1.030  0.00  0.00    +0.000 C 
ATOM     14  C17 UNK     0      -3.204   1.636  -2.027  0.00  0.00    +0.000 C 
ATOM     15  C18 UNK     0       4.977  -0.006  -0.325  0.00  0.00    +0.000 C 
ATOM     16  C19 UNK     0      -4.486  -0.701   0.671  0.00  0.00    +0.000 C 
ATOM     17  C20 UNK     0       3.024  -1.737   1.216  0.00  0.00    +0.000 C 
ATOM     18  C21 UNK     0       0.354   2.156   0.629  0.00  0.00    +0.000 C 
ATOM     19  C22 UNK     0      -0.907  -0.485  -2.128  0.00  0.00    +0.000 C 
ATOM     20  C23 UNK     0      -5.458   0.801  -1.050  0.00  0.00    +0.000 C 
ATOM     21  C24 UNK     0      -5.820  -0.147   0.108  0.00  0.00    +0.000 C 
ATOM     22  C25 UNK     0       2.773   0.641   2.055  0.00  0.00    +0.000 C 
ATOM     23  C26 UNK     0       5.311  -1.464   0.125  0.00  0.00    +0.000 C 
ATOM     24  C27 UNK     0       4.543  -1.892   1.381  0.00  0.00    +0.000 C 
ATOM     25  C29 UNK     0       5.633   0.197  -1.721  0.00  0.00    +0.000 C 
ATOM     26  C30 UNK     0       5.616   1.033   0.632  0.00  0.00    +0.000 C 
ENDROOT
BRANCH  16  27
ATOM     27  C31 UNK     0      -4.495  -2.228   0.761  0.00  0.00    +0.000 C 
ATOM     28  C33 UNK     0      -4.683  -2.999  -0.325  0.00  0.00    +0.000 C 
ATOM     29  C32 UNK     0      -4.338  -2.906   2.098  0.00  0.00    +0.000 C 
ENDBRANCH  16  27
BRANCH   8  30
ATOM     30  C28 UNK     0      -4.028   2.349   0.240  0.00  0.00    +0.000 C 
ATOM     31  O3  UNK     0      -4.019   2.128   1.481  0.00  0.00    +0.000 OA
BRANCH  30  32
ATOM     32  O2  UNK     0      -4.155   3.663  -0.204  0.00  0.00    +0.000 OA
ATOM     33  H79 UNK     0      -4.202   4.433   0.453  0.00  0.00    +0.000 HD
ENDBRANCH  30  32
ENDBRANCH   8  30
BRANCH  23  34
ATOM     34  O1  UNK     0       6.692  -1.601   0.356  0.00  0.00    +0.000 OA
ATOM     35  H75 UNK     0       6.899  -2.572   0.315  0.00  0.00    +0.000 HD
ENDBRANCH  23  34
TORSDOF 4
