REMARK  Name = C:\Users\Maximilian\Desktop\Conformers\converted_pdb\conformers_pdb\Betulinic Acid_conf_1.pdb
REMARK  10 active torsions:
REMARK  status: ('A' for Active; 'I' for Inactive)
REMARK    1  A    between atoms: C4_1  and  C21_18
REMARK    2  A    between atoms: C5_2  and  C22_19
REMARK    3  A    between atoms: C8_5  and  C25_22
REMARK    4  A    between atoms: C11_8  and  C28_27
REMARK    5  A    between atoms: C18_15  and  C29_25
REMARK    6  A    between atoms: C18_15  and  C30_26
REMARK    7  A    between atoms: C19_16  and  C31_31
REMARK    8  A    between atoms: C26_23  and  O1_34
REMARK    9  A    between atoms: C28_27  and  O2_29
REMARK   10  A    between atoms: C31_31  and  C32_33
REMARK                            x       y       z     vdW  Elec       q    Type
REMARK                         _______ _______ _______ _____ _____    ______ ____
ROOT
ATOM      1  C4  UNK     0       0.453  -0.457   0.932  0.00  0.00    +0.000 C 
ATOM      2  C5  UNK     0      -1.048   0.147   1.115  0.00  0.00    +0.000 C 
ATOM      3  C6  UNK     0       1.051   0.052  -0.452  0.00  0.00    +0.000 C 
ATOM      4  C7  UNK     0      -1.918  -0.252  -0.157  0.00  0.00    +0.000 C 
ATOM      5  C8  UNK     0       2.609  -0.173  -0.728  0.00  0.00    +0.000 C 
ATOM      6  C9  UNK     0      -3.408   0.155   0.020  0.00  0.00    +0.000 C 
ATOM      7  C10 UNK     0       3.404   0.316   0.542  0.00  0.00    +0.000 C 
ATOM      8  C11 UNK     0      -4.024  -0.559   1.240  0.00  0.00    +0.000 C 
ATOM      9  C12 UNK     0       1.402   0.016   2.081  0.00  0.00    +0.000 C 
ATOM     10  C13 UNK     0       0.124  -0.319  -1.643  0.00  0.00    +0.000 C 
ATOM     11  C14 UNK     0      -1.767  -0.406   2.409  0.00  0.00    +0.000 C 
ATOM     12  C15 UNK     0      -1.288   0.255  -1.464  0.00  0.00    +0.000 C 
ATOM     13  C16 UNK     0       2.881  -0.332   1.848  0.00  0.00    +0.000 C 
ATOM     14  C17 UNK     0      -3.282  -0.062   2.502  0.00  0.00    +0.000 C 
ATOM     15  C18 UNK     0       4.989   0.344   0.407  0.00  0.00    +0.000 C 
ATOM     16  C19 UNK     0      -4.433  -0.057  -1.113  0.00  0.00    +0.000 C 
ATOM     17  C20 UNK     0       3.034   0.721  -1.962  0.00  0.00    +0.000 C 
ATOM     18  C21 UNK     0       0.420  -2.024   0.995  0.00  0.00    +0.000 C 
ATOM     19  C22 UNK     0      -1.011   1.714   1.298  0.00  0.00    +0.000 C 
ATOM     20  C23 UNK     0      -5.488  -0.128   1.133  0.00  0.00    +0.000 C 
ATOM     21  C24 UNK     0      -5.793  -0.166  -0.375  0.00  0.00    +0.000 C 
ATOM     22  C25 UNK     0       2.930  -1.662  -1.078  0.00  0.00    +0.000 C 
ATOM     23  C26 UNK     0       5.437   0.676  -1.066  0.00  0.00    +0.000 C 
ATOM     24  C27 UNK     0       4.366   1.481  -1.815  0.00  0.00    +0.000 C 
ATOM     25  C29 UNK     0       5.540   1.472   1.327  0.00  0.00    +0.000 C 
ATOM     26  C30 UNK     0       5.660  -0.972   0.884  0.00  0.00    +0.000 C 
ENDROOT
BRANCH  16  27
ATOM     27  C31 UNK     0      -4.442   1.051  -2.167  0.00  0.00    +0.000 C 
ATOM     28  C33 UNK     0      -4.700   2.331  -1.842  0.00  0.00    +0.000 C 
ATOM     29  C32 UNK     0      -4.210   0.715  -3.618  0.00  0.00    +0.000 C 
ENDBRANCH  16  27
BRANCH   8  30
ATOM     30  C28 UNK     0      -3.992  -2.094   1.201  0.00  0.00    +0.000 C 
ATOM     31  O3  UNK     0      -3.928  -2.725   0.111  0.00  0.00    +0.000 OA
BRANCH  30  32
ATOM     32  O2  UNK     0      -4.130  -2.816   2.384  0.00  0.00    +0.000 OA
ATOM     33  H79 UNK     0      -4.141  -3.829   2.377  0.00  0.00    +0.000 HD
ENDBRANCH  30  32
ENDBRANCH   8  30
BRANCH  23  34
ATOM     34  O1  UNK     0       5.759  -0.483  -1.794  0.00  0.00    +0.000 OA
ATOM     35  H75 UNK     0       6.260  -0.195  -2.602  0.00  0.00    +0.000 HD
ENDBRANCH  23  34
TORSDOF 4
