REMARK  Name = C:\Users\Maximilian\Desktop\Conformers\converted_pdb\conformers_pdb\Betulinic Acid_conf_3.pdb
REMARK  10 active torsions:
REMARK  status: ('A' for Active; 'I' for Inactive)
REMARK    1  A    between atoms: C4_1  and  C21_18
REMARK    2  A    between atoms: C5_2  and  C22_19
REMARK    3  A    between atoms: C8_5  and  C25_22
REMARK    4  A    between atoms: C11_8  and  C28_27
REMARK    5  A    between atoms: C18_15  and  C29_25
REMARK    6  A    between atoms: C18_15  and  C30_26
REMARK    7  A    between atoms: C19_16  and  C31_31
REMARK    8  A    between atoms: C26_23  and  O1_34
REMARK    9  A    between atoms: C28_27  and  O2_29
REMARK   10  A    between atoms: C31_31  and  C32_33
REMARK                            x       y       z     vdW  Elec       q    Type
REMARK                         _______ _______ _______ _____ _____    ______ ____
ROOT
ATOM      1  C4  UNK     0       0.242  -0.283  -1.077  0.00  0.00    +0.000 C 
ATOM      2  C5  UNK     0      -1.288  -0.616  -0.626  0.00  0.00    +0.000 C 
ATOM      3  C6  UNK     0       1.117   0.025   0.218  0.00  0.00    +0.000 C 
ATOM      4  C7  UNK     0      -1.831   0.577   0.275  0.00  0.00    +0.000 C 
ATOM      5  C8  UNK     0       2.706   0.121   0.046  0.00  0.00    +0.000 C 
ATOM      6  C9  UNK     0      -3.340   0.394   0.619  0.00  0.00    +0.000 C 
ATOM      7  C10 UNK     0       3.181  -1.142  -0.768  0.00  0.00    +0.000 C 
ATOM      8  C11 UNK     0      -4.222   0.287  -0.647  0.00  0.00    +0.000 C 
ATOM      9  C12 UNK     0       0.896  -1.498  -1.816  0.00  0.00    +0.000 C 
ATOM     10  C13 UNK     0       0.491   1.155   1.078  0.00  0.00    +0.000 C 
ATOM     11  C14 UNK     0      -2.253  -0.769  -1.863  0.00  0.00    +0.000 C 
ATOM     12  C15 UNK     0      -0.941   0.809   1.505  0.00  0.00    +0.000 C 
ATOM     13  C16 UNK     0       2.397  -1.316  -2.091  0.00  0.00    +0.000 C 
ATOM     14  C17 UNK     0      -3.753  -0.919  -1.487  0.00  0.00    +0.000 C 
ATOM     15  C18 UNK     0       4.755  -1.341  -0.911  0.00  0.00    +0.000 C 
ATOM     16  C19 UNK     0      -4.101   1.408   1.499  0.00  0.00    +0.000 C 
ATOM     17  C20 UNK     0       3.374   0.068   1.478  0.00  0.00    +0.000 C 
ATOM     18  C21 UNK     0       0.252   0.917  -2.087  0.00  0.00    +0.000 C 
ATOM     19  C22 UNK     0      -1.359  -1.988   0.151  0.00  0.00    +0.000 C 
ATOM     20  C23 UNK     0      -5.607   0.135  -0.005  0.00  0.00    +0.000 C 
ATOM     21  C24 UNK     0      -5.592   1.144   1.159  0.00  0.00    +0.000 C 
ATOM     22  C25 UNK     0       3.132   1.461  -0.636  0.00  0.00    +0.000 C 
ATOM     23  C26 UNK     0       5.528  -0.748   0.322  0.00  0.00    +0.000 C 
ATOM     24  C27 UNK     0       4.667  -0.766   1.592  0.00  0.00    +0.000 C 
ATOM     25  C29 UNK     0       5.054  -2.869  -0.956  0.00  0.00    +0.000 C 
ATOM     26  C30 UNK     0       5.327  -0.748  -2.226  0.00  0.00    +0.000 C 
ENDROOT
BRANCH  16  27
ATOM     27  C31 UNK     0      -3.835   1.294   2.999  0.00  0.00    +0.000 C 
ATOM     28  C33 UNK     0      -4.054   0.151   3.674  0.00  0.00    +0.000 C 
ATOM     29  C32 UNK     0      -3.398   2.509   3.777  0.00  0.00    +0.000 C 
ENDBRANCH  16  27
BRANCH   8  30
ATOM     30  C28 UNK     0      -4.281   1.531  -1.547  0.00  0.00    +0.000 C 
ATOM     31  O3  UNK     0      -5.113   1.564  -2.498  0.00  0.00    +0.000 OA
BRANCH  30  32
ATOM     32  O2  UNK     0      -3.461   2.641  -1.340  0.00  0.00    +0.000 OA
ATOM     33  H79 UNK     0      -3.544   3.460  -1.926  0.00  0.00    +0.000 HD
ENDBRANCH  30  32
ENDBRANCH   8  30
BRANCH  23  34
ATOM     34  O1  UNK     0       5.991   0.554   0.068  0.00  0.00    +0.000 OA
ATOM     35  H75 UNK     0       6.671   0.769   0.759  0.00  0.00    +0.000 HD
ENDBRANCH  23  34
TORSDOF 4
