REMARK  Name = C:\Users\Maximilian\Desktop\Conformers\converted_pdb\conformers_pdb\Betulinic Acid_conf_13.pdb
REMARK  10 active torsions:
REMARK  status: ('A' for Active; 'I' for Inactive)
REMARK    1  A    between atoms: C4_1  and  C21_18
REMARK    2  A    between atoms: C5_2  and  C22_19
REMARK    3  A    between atoms: C8_5  and  C25_22
REMARK    4  A    between atoms: C11_8  and  C28_27
REMARK    5  A    between atoms: C18_15  and  C29_25
REMARK    6  A    between atoms: C18_15  and  C30_26
REMARK    7  A    between atoms: C19_16  and  C31_31
REMARK    8  A    between atoms: C26_23  and  O1_34
REMARK    9  A    between atoms: C28_27  and  O2_29
REMARK   10  A    between atoms: C31_31  and  C32_33
REMARK                            x       y       z     vdW  Elec       q    Type
REMARK                         _______ _______ _______ _____ _____    ______ ____
ROOT
ATOM      1  C4  UNK     0      -0.532  -0.788   0.743  0.00  0.00    +0.000 C 
ATOM      2  C5  UNK     0       0.999  -1.170   0.338  0.00  0.00    +0.000 C 
ATOM      3  C6  UNK     0      -0.986   0.472  -0.112  0.00  0.00    +0.000 C 
ATOM      4  C7  UNK     0       1.919   0.111   0.562  0.00  0.00    +0.000 C 
ATOM      5  C8  UNK     0      -2.537   0.859  -0.126  0.00  0.00    +0.000 C 
ATOM      6  C9  UNK     0       3.412  -0.229   0.316  0.00  0.00    +0.000 C 
ATOM      7  C10 UNK     0      -3.366  -0.452  -0.398  0.00  0.00    +0.000 C 
ATOM      8  C11 UNK     0       3.902  -1.262   1.345  0.00  0.00    +0.000 C 
ATOM      9  C12 UNK     0      -1.516  -1.970   0.453  0.00  0.00    +0.000 C 
ATOM     10  C13 UNK     0      -0.028   1.675   0.110  0.00  0.00    +0.000 C 
ATOM     11  C14 UNK     0       1.563  -2.372   1.190  0.00  0.00    +0.000 C 
ATOM     12  C15 UNK     0       1.424   1.328  -0.243  0.00  0.00    +0.000 C 
ATOM     13  C16 UNK     0      -2.999  -1.591   0.588  0.00  0.00    +0.000 C 
ATOM     14  C17 UNK     0       3.108  -2.577   1.125  0.00  0.00    +0.000 C 
ATOM     15  C18 UNK     0      -4.928  -0.256  -0.629  0.00  0.00    +0.000 C 
ATOM     16  C19 UNK     0       4.499   0.860   0.325  0.00  0.00    +0.000 C 
ATOM     17  C20 UNK     0      -2.788   1.870  -1.318  0.00  0.00    +0.000 C 
ATOM     18  C21 UNK     0      -0.637  -0.491   2.281  0.00  0.00    +0.000 C 
ATOM     19  C22 UNK     0       1.094  -1.658  -1.161  0.00  0.00    +0.000 C 
ATOM     20  C23 UNK     0       5.391  -1.364   0.975  0.00  0.00    +0.000 C 
ATOM     21  C24 UNK     0       5.807   0.065   0.566  0.00  0.00    +0.000 C 
ATOM     22  C25 UNK     0      -2.980   1.559   1.200  0.00  0.00    +0.000 C 
ATOM     23  C26 UNK     0      -5.238   1.111  -1.349  0.00  0.00    +0.000 C 
ATOM     24  C27 UNK     0      -4.041   1.601  -2.174  0.00  0.00    +0.000 C 
ATOM     25  C29 UNK     0      -5.433  -1.398  -1.558  0.00  0.00    +0.000 C 
ATOM     26  C30 UNK     0      -5.751  -0.367   0.684  0.00  0.00    +0.000 C 
ENDROOT
BRANCH  16  27
ATOM     27  C31 UNK     0       4.572   1.706  -0.948  0.00  0.00    +0.000 C 
ATOM     28  C33 UNK     0       4.755   1.149  -2.160  0.00  0.00    +0.000 C 
ATOM     29  C32 UNK     0       4.480   3.208  -0.858  0.00  0.00    +0.000 C 
ENDBRANCH  16  27
BRANCH   8  30
ATOM     30  C28 UNK     0       3.800  -0.784   2.810  0.00  0.00    +0.000 C 
ATOM     31  O3  UNK     0       4.605   0.080   3.259  0.00  0.00    +0.000 OA
BRANCH  30  32
ATOM     32  O2  UNK     0       2.836  -1.295   3.676  0.00  0.00    +0.000 OA
ATOM     33  H79 UNK     0       2.780  -0.980   4.638  0.00  0.00    +0.000 HD
ENDBRANCH  30  32
ENDBRANCH   8  30
BRANCH  23  34
ATOM     34  O1  UNK     0      -5.625   2.111  -0.440  0.00  0.00    +0.000 OA
ATOM     35  H75 UNK     0      -6.113   2.807  -0.954  0.00  0.00    +0.000 HD
ENDBRANCH  23  34
TORSDOF 4
