REMARK  Name = C:\Users\Maximilian\Desktop\Conformers\converted_pdb\conformers_pdb\Butein_conf_8.pdb
REMARK  7 active torsions:
REMARK  status: ('A' for Active; 'I' for Inactive)
REMARK    1  A    between atoms: C9_2  and  C6_3
REMARK    2  A    between atoms: C9_2  and  C14_13
REMARK    3  A    between atoms: C8_4  and  O1_9
REMARK    4  A    between atoms: C18_6  and  O3_11
REMARK    5  A    between atoms: C10_14  and  C7_15
REMARK    6  A    between atoms: C19_18  and  O4_21
REMARK    7  A    between atoms: C15_19  and  O2_23
REMARK                            x       y       z     vdW  Elec       q    Type
REMARK                         _______ _______ _______ _____ _____    ______ ____
ROOT
ATOM      1  O5  UNK     0       0.202   0.955   0.556  0.00  0.00    +0.000 OA
ATOM      2  C9  UNK     0      -0.663   0.070   0.803  0.00  0.00    +0.000 C 
ENDROOT
BRANCH   2   3
ATOM      3  C6  UNK     0      -2.090   0.455   0.844  0.00  0.00    +0.000 A 
ATOM      4  C8  UNK     0      -2.689   1.190  -0.207  0.00  0.00    +0.000 A 
ATOM      5  C16 UNK     0      -4.028   1.587  -0.101  0.00  0.00    +0.000 A 
ATOM      6  C18 UNK     0      -4.785   1.246   1.026  0.00  0.00    +0.000 A 
ATOM      7  C17 UNK     0      -4.200   0.509   2.057  0.00  0.00    +0.000 A 
ATOM      8  C11 UNK     0      -2.863   0.118   1.970  0.00  0.00    +0.000 A 
BRANCH   4   9
ATOM      9  O1  UNK     0      -1.996   1.522  -1.373  0.00  0.00    +0.000 OA
ATOM     10  H29 UNK     0      -1.057   1.202  -1.570  0.00  0.00    +0.000 HD
ENDBRANCH   4   9
BRANCH   6  11
ATOM     11  O3  UNK     0      -6.119   1.635   1.130  0.00  0.00    +0.000 OA
ATOM     12  H31 UNK     0      -6.573   2.170   0.399  0.00  0.00    +0.000 HD
ENDBRANCH   6  11
ENDBRANCH   2   3
BRANCH   2  13
ATOM     13  C14 UNK     0      -0.249  -1.317   1.126  0.00  0.00    +0.000 C 
ATOM     14  C10 UNK     0       0.944  -1.860   0.837  0.00  0.00    +0.000 C 
BRANCH  14  15
ATOM     15  C7  UNK     0       1.983  -1.237  -0.008  0.00  0.00    +0.000 A 
ATOM     16  C13 UNK     0       1.677  -0.735  -1.282  0.00  0.00    +0.000 A 
ATOM     17  C20 UNK     0       2.682  -0.192  -2.084  0.00  0.00    +0.000 A 
ATOM     18  C19 UNK     0       4.010  -0.161  -1.642  0.00  0.00    +0.000 A 
ATOM     19  C15 UNK     0       4.332  -0.697  -0.371  0.00  0.00    +0.000 A 
ATOM     20  C12 UNK     0       3.315  -1.238   0.426  0.00  0.00    +0.000 A 
BRANCH  18  21
ATOM     21  O4  UNK     0       4.967   0.401  -2.488  0.00  0.00    +0.000 OA
ATOM     22  H32 UNK     0       5.948   0.478  -2.260  0.00  0.00    +0.000 HD
ENDBRANCH  18  21
BRANCH  19  23
ATOM     23  O2  UNK     0       5.635  -0.716   0.131  0.00  0.00    +0.000 OA
ATOM     24  H30 UNK     0       6.437  -0.359  -0.368  0.00  0.00    +0.000 HD
ENDBRANCH  19  23
ENDBRANCH  14  15
ENDBRANCH   2  13
TORSDOF 7
