REMARK  Name = C:\Users\Maximilian\Desktop\Conformers\converted_pdb\conformers_pdb\Butein_conf_10.pdb
REMARK  7 active torsions:
REMARK  status: ('A' for Active; 'I' for Inactive)
REMARK    1  A    between atoms: C9_2  and  C6_3
REMARK    2  A    between atoms: C9_2  and  C14_13
REMARK    3  A    between atoms: C8_4  and  O1_9
REMARK    4  A    between atoms: C18_6  and  O3_11
REMARK    5  A    between atoms: C10_14  and  C7_15
REMARK    6  A    between atoms: C19_18  and  O4_21
REMARK    7  A    between atoms: C15_19  and  O2_23
REMARK                            x       y       z     vdW  Elec       q    Type
REMARK                         _______ _______ _______ _____ _____    ______ ____
ROOT
ATOM      1  O5  UNK     0      -0.981  -2.246  -1.411  0.00  0.00    +0.000 OA
ATOM      2  C9  UNK     0      -1.178  -1.200  -0.733  0.00  0.00    +0.000 C 
ENDROOT
BRANCH   2   3
ATOM      3  C6  UNK     0      -2.562  -0.718  -0.526  0.00  0.00    +0.000 A 
ATOM      4  C8  UNK     0      -3.614  -1.594  -0.160  0.00  0.00    +0.000 A 
ATOM      5  C16 UNK     0      -4.920  -1.101  -0.048  0.00  0.00    +0.000 A 
ATOM      6  C18 UNK     0      -5.194   0.251  -0.267  0.00  0.00    +0.000 A 
ATOM      7  C17 UNK     0      -4.154   1.123  -0.606  0.00  0.00    +0.000 A 
ATOM      8  C11 UNK     0      -2.850   0.643  -0.736  0.00  0.00    +0.000 A 
BRANCH   4   9
ATOM      9  O1  UNK     0      -3.396  -2.943   0.126  0.00  0.00    +0.000 OA
ATOM     10  H29 UNK     0      -2.474  -3.356   0.183  0.00  0.00    +0.000 HD
ENDBRANCH   4   9
BRANCH   6  11
ATOM     11  O3  UNK     0      -6.500   0.718  -0.142  0.00  0.00    +0.000 OA
ATOM     12  H31 UNK     0      -6.731   1.692  -0.293  0.00  0.00    +0.000 HD
ENDBRANCH   6  11
ENDBRANCH   2   3
BRANCH   2  13
ATOM     13  C14 UNK     0      -0.033  -0.447  -0.178  0.00  0.00    +0.000 C 
ATOM     14  C10 UNK     0       1.237  -0.823  -0.385  0.00  0.00    +0.000 C 
BRANCH  14  15
ATOM     15  C7  UNK     0       2.410  -0.101   0.168  0.00  0.00    +0.000 A 
ATOM     16  C13 UNK     0       2.355   1.255   0.544  0.00  0.00    +0.000 A 
ATOM     17  C20 UNK     0       3.490   1.895   1.048  0.00  0.00    +0.000 A 
ATOM     18  C19 UNK     0       4.698   1.198   1.177  0.00  0.00    +0.000 A 
ATOM     19  C15 UNK     0       4.767  -0.150   0.790  0.00  0.00    +0.000 A 
ATOM     20  C12 UNK     0       3.629  -0.788   0.285  0.00  0.00    +0.000 A 
BRANCH  18  21
ATOM     21  O4  UNK     0       5.827   1.840   1.683  0.00  0.00    +0.000 OA
ATOM     22  H32 UNK     0       5.802   2.812   1.967  0.00  0.00    +0.000 HD
ENDBRANCH  18  21
BRANCH  19  23
ATOM     23  O2  UNK     0       5.956  -0.871   0.900  0.00  0.00    +0.000 OA
ATOM     24  H30 UNK     0       6.807  -0.454   1.260  0.00  0.00    +0.000 HD
ENDBRANCH  19  23
ENDBRANCH  14  15
ENDBRANCH   2  13
TORSDOF 7
