REMARK  Name = C:\Users\Maximilian\Desktop\Conformers\converted_pdb\conformers_pdb\Butein_conf_7.pdb
REMARK  7 active torsions:
REMARK  status: ('A' for Active; 'I' for Inactive)
REMARK    1  A    between atoms: C9_2  and  C6_3
REMARK    2  A    between atoms: C9_2  and  C14_13
REMARK    3  A    between atoms: C8_4  and  O1_9
REMARK    4  A    between atoms: C18_6  and  O3_11
REMARK    5  A    between atoms: C10_14  and  C7_15
REMARK    6  A    between atoms: C19_18  and  O4_21
REMARK    7  A    between atoms: C15_19  and  O2_23
REMARK                            x       y       z     vdW  Elec       q    Type
REMARK                         _______ _______ _______ _____ _____    ______ ____
ROOT
ATOM      1  O5  UNK     0      -1.556  -3.186  -0.954  0.00  0.00    +0.000 OA
ATOM      2  C9  UNK     0      -1.277  -2.010  -0.599  0.00  0.00    +0.000 C 
ENDROOT
BRANCH   2   3
ATOM      3  C6  UNK     0      -2.385  -1.061  -0.344  0.00  0.00    +0.000 A 
ATOM      4  C8  UNK     0      -2.389   0.234  -0.905  0.00  0.00    +0.000 A 
ATOM      5  C16 UNK     0      -3.456   1.106  -0.640  0.00  0.00    +0.000 A 
ATOM      6  C18 UNK     0      -4.527   0.693   0.158  0.00  0.00    +0.000 A 
ATOM      7  C17 UNK     0      -4.536  -0.601   0.694  0.00  0.00    +0.000 A 
ATOM      8  C11 UNK     0      -3.475  -1.474   0.439  0.00  0.00    +0.000 A 
BRANCH   4   9
ATOM      9  O1  UNK     0      -1.348   0.645  -1.737  0.00  0.00    +0.000 OA
ATOM     10  H29 UNK     0      -1.332   1.570  -2.152  0.00  0.00    +0.000 HD
ENDBRANCH   4   9
BRANCH   6  11
ATOM     11  O3  UNK     0      -5.577   1.573   0.409  0.00  0.00    +0.000 OA
ATOM     12  H31 UNK     0      -6.368   1.303   0.982  0.00  0.00    +0.000 HD
ENDBRANCH   6  11
ENDBRANCH   2   3
BRANCH   2  13
ATOM     13  C14 UNK     0       0.148  -1.644  -0.449  0.00  0.00    +0.000 C 
ATOM     14  C10 UNK     0       0.557  -0.612   0.304  0.00  0.00    +0.000 C 
BRANCH  14  15
ATOM     15  C7  UNK     0       1.979  -0.224   0.471  0.00  0.00    +0.000 A 
ATOM     16  C13 UNK     0       3.042  -1.125   0.262  0.00  0.00    +0.000 A 
ATOM     17  C20 UNK     0       4.365  -0.712   0.442  0.00  0.00    +0.000 A 
ATOM     18  C19 UNK     0       4.648   0.600   0.841  0.00  0.00    +0.000 A 
ATOM     19  C15 UNK     0       3.600   1.500   1.066  0.00  0.00    +0.000 A 
ATOM     20  C12 UNK     0       2.273   1.086   0.886  0.00  0.00    +0.000 A 
BRANCH  18  21
ATOM     21  O4  UNK     0       5.967   1.015   1.020  0.00  0.00    +0.000 OA
ATOM     22  H32 UNK     0       6.746   0.385   0.866  0.00  0.00    +0.000 HD
ENDBRANCH  18  21
BRANCH  19  23
ATOM     23  O2  UNK     0       3.885   2.804   1.468  0.00  0.00    +0.000 OA
ATOM     24  H30 UNK     0       3.148   3.479   1.638  0.00  0.00    +0.000 HD
ENDBRANCH  19  23
ENDBRANCH  14  15
ENDBRANCH   2  13
TORSDOF 7
