REMARK  Name = C:\Users\Maximilian\Desktop\Conformers\converted_pdb\conformers_pdb\Butein_conf_9.pdb
REMARK  7 active torsions:
REMARK  status: ('A' for Active; 'I' for Inactive)
REMARK    1  A    between atoms: C9_2  and  C6_3
REMARK    2  A    between atoms: C9_2  and  C14_13
REMARK    3  A    between atoms: C8_4  and  O1_9
REMARK    4  A    between atoms: C18_6  and  O3_11
REMARK    5  A    between atoms: C10_14  and  C7_15
REMARK    6  A    between atoms: C19_18  and  O4_21
REMARK    7  A    between atoms: C15_19  and  O2_23
REMARK                            x       y       z     vdW  Elec       q    Type
REMARK                         _______ _______ _______ _____ _____    ______ ____
ROOT
ATOM      1  O5  UNK     0       0.035  -1.023  -0.011  0.00  0.00    +0.000 OA
ATOM      2  C9  UNK     0       0.728  -0.050   0.391  0.00  0.00    +0.000 C 
ENDROOT
BRANCH   2   3
ATOM      3  C6  UNK     0       2.192  -0.097   0.196  0.00  0.00    +0.000 A 
ATOM      4  C8  UNK     0       3.092   0.168   1.250  0.00  0.00    +0.000 A 
ATOM      5  C16 UNK     0       4.475   0.124   1.014  0.00  0.00    +0.000 A 
ATOM      6  C18 UNK     0       4.968  -0.203  -0.253  0.00  0.00    +0.000 A 
ATOM      7  C17 UNK     0       4.076  -0.493  -1.292  0.00  0.00    +0.000 A 
ATOM      8  C11 UNK     0       2.698  -0.445  -1.067  0.00  0.00    +0.000 A 
BRANCH   4   9
ATOM      9  O1  UNK     0       2.620   0.446   2.532  0.00  0.00    +0.000 OA
ATOM     10  H29 UNK     0       3.250   0.631   3.304  0.00  0.00    +0.000 HD
ENDBRANCH   4   9
BRANCH   6  11
ATOM     11  O3  UNK     0       6.344  -0.243  -0.466  0.00  0.00    +0.000 OA
ATOM     12  H31 UNK     0       6.733  -0.478  -1.372  0.00  0.00    +0.000 HD
ENDBRANCH   6  11
ENDBRANCH   2   3
BRANCH   2  13
ATOM     13  C14 UNK     0       0.088   1.115   1.053  0.00  0.00    +0.000 C 
ATOM     14  C10 UNK     0      -1.228   1.380   1.071  0.00  0.00    +0.000 C 
BRANCH  14  15
ATOM     15  C7  UNK     0      -2.258   0.662   0.293  0.00  0.00    +0.000 A 
ATOM     16  C13 UNK     0      -2.138   0.507  -1.095  0.00  0.00    +0.000 A 
ATOM     17  C20 UNK     0      -3.147  -0.129  -1.821  0.00  0.00    +0.000 A 
ATOM     18  C19 UNK     0      -4.299  -0.600  -1.180  0.00  0.00    +0.000 A 
ATOM     19  C15 UNK     0      -4.442  -0.415   0.216  0.00  0.00    +0.000 A 
ATOM     20  C12 UNK     0      -3.423   0.223   0.935  0.00  0.00    +0.000 A 
BRANCH  18  21
ATOM     21  O4  UNK     0      -5.268  -1.233  -1.961  0.00  0.00    +0.000 OA
ATOM     22  H32 UNK     0      -6.129  -1.613  -1.594  0.00  0.00    +0.000 HD
ENDBRANCH  18  21
BRANCH  19  23
ATOM     23  O2  UNK     0      -5.568  -0.843   0.922  0.00  0.00    +0.000 OA
ATOM     24  H30 UNK     0      -6.359  -1.305   0.497  0.00  0.00    +0.000 HD
ENDBRANCH  19  23
ENDBRANCH  14  15
ENDBRANCH   2  13
TORSDOF 7
