REMARK  Name = C:\Users\Maximilian\Desktop\Conformers\converted_pdb\conformers_pdb\Butein_conf_2.pdb
REMARK  7 active torsions:
REMARK  status: ('A' for Active; 'I' for Inactive)
REMARK    1  A    between atoms: C9_2  and  C6_3
REMARK    2  A    between atoms: C9_2  and  C14_13
REMARK    3  A    between atoms: C8_4  and  O1_9
REMARK    4  A    between atoms: C18_6  and  O3_11
REMARK    5  A    between atoms: C10_14  and  C7_15
REMARK    6  A    between atoms: C19_18  and  O4_21
REMARK    7  A    between atoms: C15_19  and  O2_23
REMARK                            x       y       z     vdW  Elec       q    Type
REMARK                         _______ _______ _______ _____ _____    ______ ____
ROOT
ATOM      1  O5  UNK     0       0.047  -0.049   1.274  0.00  0.00    +0.000 OA
ATOM      2  C9  UNK     0      -0.715   0.538   0.459  0.00  0.00    +0.000 C 
ENDROOT
BRANCH   2   3
ATOM      3  C6  UNK     0      -2.111   0.074   0.319  0.00  0.00    +0.000 A 
ATOM      4  C8  UNK     0      -2.419  -1.292   0.105  0.00  0.00    +0.000 A 
ATOM      5  C16 UNK     0      -3.757  -1.699   0.038  0.00  0.00    +0.000 A 
ATOM      6  C18 UNK     0      -4.793  -0.770   0.162  0.00  0.00    +0.000 A 
ATOM      7  C17 UNK     0      -4.492   0.582   0.360  0.00  0.00    +0.000 A 
ATOM      8  C11 UNK     0      -3.162   1.000   0.440  0.00  0.00    +0.000 A 
BRANCH   4   9
ATOM      9  O1  UNK     0      -1.428  -2.261  -0.069  0.00  0.00    +0.000 OA
ATOM     10  H29 UNK     0      -0.442  -2.042  -0.122  0.00  0.00    +0.000 HD
ENDBRANCH   4   9
BRANCH   6  11
ATOM     11  O3  UNK     0      -6.116  -1.199   0.086  0.00  0.00    +0.000 OA
ATOM     12  H31 UNK     0      -6.889  -0.550   0.171  0.00  0.00    +0.000 HD
ENDBRANCH   6  11
ENDBRANCH   2   3
BRANCH   2  13
ATOM     13  C14 UNK     0      -0.240   1.727  -0.291  0.00  0.00    +0.000 C 
ATOM     14  C10 UNK     0       1.046   2.052  -0.497  0.00  0.00    +0.000 C 
BRANCH  14  15
ATOM     15  C7  UNK     0       2.205   1.193  -0.178  0.00  0.00    +0.000 A 
ATOM     16  C13 UNK     0       3.314   1.749   0.474  0.00  0.00    +0.000 A 
ATOM     17  C20 UNK     0       4.437   0.965   0.748  0.00  0.00    +0.000 A 
ATOM     18  C19 UNK     0       4.476  -0.377   0.355  0.00  0.00    +0.000 A 
ATOM     19  C15 UNK     0       3.382  -0.936  -0.328  0.00  0.00    +0.000 A 
ATOM     20  C12 UNK     0       2.257  -0.146  -0.603  0.00  0.00    +0.000 A 
BRANCH  18  21
ATOM     21  O4  UNK     0       5.609  -1.137   0.646  0.00  0.00    +0.000 OA
ATOM     22  H32 UNK     0       5.685  -2.112   0.382  0.00  0.00    +0.000 HD
ENDBRANCH  18  21
BRANCH  19  23
ATOM     23  O2  UNK     0       3.418  -2.269  -0.735  0.00  0.00    +0.000 OA
ATOM     24  H30 UNK     0       2.642  -2.694  -1.227  0.00  0.00    +0.000 HD
ENDBRANCH  19  23
ENDBRANCH  14  15
ENDBRANCH   2  13
TORSDOF 7
