REMARK  Name = C:\Users\Maximilian\Desktop\Conformers\converted_pdb\conformers_pdb\Butein_conf_1.pdb
REMARK  7 active torsions:
REMARK  status: ('A' for Active; 'I' for Inactive)
REMARK    1  A    between atoms: C9_2  and  C6_3
REMARK    2  A    between atoms: C9_2  and  C14_13
REMARK    3  A    between atoms: C8_4  and  O1_9
REMARK    4  A    between atoms: C18_6  and  O3_11
REMARK    5  A    between atoms: C10_14  and  C7_15
REMARK    6  A    between atoms: C19_18  and  O4_21
REMARK    7  A    between atoms: C15_19  and  O2_23
REMARK                            x       y       z     vdW  Elec       q    Type
REMARK                         _______ _______ _______ _____ _____    ______ ____
ROOT
ATOM      1  O5  UNK     0      -1.342   0.878   3.057  0.00  0.00    +0.000 OA
ATOM      2  C9  UNK     0      -1.150   0.429   1.895  0.00  0.00    +0.000 C 
ENDROOT
BRANCH   2   3
ATOM      3  C6  UNK     0      -2.282  -0.193   1.172  0.00  0.00    +0.000 A 
ATOM      4  C8  UNK     0      -3.517   0.477   1.010  0.00  0.00    +0.000 A 
ATOM      5  C16 UNK     0      -4.581  -0.174   0.372  0.00  0.00    +0.000 A 
ATOM      6  C18 UNK     0      -4.428  -1.476  -0.120  0.00  0.00    +0.000 A 
ATOM      7  C17 UNK     0      -3.206  -2.134   0.031  0.00  0.00    +0.000 A 
ATOM      8  C11 UNK     0      -2.141  -1.500   0.675  0.00  0.00    +0.000 A 
BRANCH   4   9
ATOM      9  O1  UNK     0      -3.713   1.789   1.447  0.00  0.00    +0.000 OA
ATOM     10  H29 UNK     0      -2.974   2.355   1.843  0.00  0.00    +0.000 HD
ENDBRANCH   4   9
BRANCH   6  11
ATOM     11  O3  UNK     0      -5.483  -2.123  -0.760  0.00  0.00    +0.000 OA
ATOM     12  H31 UNK     0      -6.382  -1.672  -0.885  0.00  0.00    +0.000 HD
ENDBRANCH   6  11
ENDBRANCH   2   3
BRANCH   2  13
ATOM     13  C14 UNK     0       0.214   0.501   1.329  0.00  0.00    +0.000 C 
ATOM     14  C10 UNK     0       0.468   0.348   0.021  0.00  0.00    +0.000 C 
BRANCH  14  15
ATOM     15  C7  UNK     0       1.826   0.439  -0.567  0.00  0.00    +0.000 A 
ATOM     16  C13 UNK     0       1.949   0.727  -1.934  0.00  0.00    +0.000 A 
ATOM     17  C20 UNK     0       3.207   0.813  -2.531  0.00  0.00    +0.000 A 
ATOM     18  C19 UNK     0       4.369   0.602  -1.782  0.00  0.00    +0.000 A 
ATOM     19  C15 UNK     0       4.261   0.290  -0.407  0.00  0.00    +0.000 A 
ATOM     20  C12 UNK     0       2.994   0.208   0.185  0.00  0.00    +0.000 A 
BRANCH  18  21
ATOM     21  O4  UNK     0       5.597   0.709  -2.438  0.00  0.00    +0.000 OA
ATOM     22  H32 UNK     0       6.491   0.585  -1.987  0.00  0.00    +0.000 HD
ENDBRANCH  18  21
BRANCH  19  23
ATOM     23  O2  UNK     0       5.374   0.049   0.401  0.00  0.00    +0.000 OA
ATOM     24  H30 UNK     0       6.328   0.072   0.069  0.00  0.00    +0.000 HD
ENDBRANCH  19  23
ENDBRANCH  14  15
ENDBRANCH   2  13
TORSDOF 7
