REMARK  Name = C:\Users\Maximilian\Desktop\Conformers\converted_pdb\conformers_pdb\Butein_conf_4.pdb
REMARK  7 active torsions:
REMARK  status: ('A' for Active; 'I' for Inactive)
REMARK    1  A    between atoms: C9_2  and  C6_3
REMARK    2  A    between atoms: C9_2  and  C14_13
REMARK    3  A    between atoms: C8_4  and  O1_9
REMARK    4  A    between atoms: C18_6  and  O3_11
REMARK    5  A    between atoms: C10_14  and  C7_15
REMARK    6  A    between atoms: C19_18  and  O4_21
REMARK    7  A    between atoms: C15_19  and  O2_23
REMARK                            x       y       z     vdW  Elec       q    Type
REMARK                         _______ _______ _______ _____ _____    ______ ____
ROOT
ATOM      1  O5  UNK     0       0.790  -2.798   0.219  0.00  0.00    +0.000 OA
ATOM      2  C9  UNK     0       1.011  -1.556   0.214  0.00  0.00    +0.000 C 
ENDROOT
BRANCH   2   3
ATOM      3  C6  UNK     0       2.380  -1.059   0.503  0.00  0.00    +0.000 A 
ATOM      4  C8  UNK     0       3.518  -1.809   0.130  0.00  0.00    +0.000 A 
ATOM      5  C16 UNK     0       4.802  -1.329   0.429  0.00  0.00    +0.000 A 
ATOM      6  C18 UNK     0       4.969  -0.112   1.093  0.00  0.00    +0.000 A 
ATOM      7  C17 UNK     0       3.846   0.634   1.467  0.00  0.00    +0.000 A 
ATOM      8  C11 UNK     0       2.562   0.164   1.177  0.00  0.00    +0.000 A 
BRANCH   4   9
ATOM      9  O1  UNK     0       3.375  -3.020  -0.548  0.00  0.00    +0.000 OA
ATOM     10  H29 UNK     0       4.178  -3.571  -0.828  0.00  0.00    +0.000 HD
ENDBRANCH   4   9
BRANCH   6  11
ATOM     11  O3  UNK     0       6.253   0.347   1.378  0.00  0.00    +0.000 OA
ATOM     12  H31 UNK     0       6.407   1.225   1.858  0.00  0.00    +0.000 HD
ENDBRANCH   6  11
ENDBRANCH   2   3
BRANCH   2  13
ATOM     13  C14 UNK     0      -0.092  -0.616  -0.089  0.00  0.00    +0.000 C 
ATOM     14  C10 UNK     0      -1.359  -1.028  -0.243  0.00  0.00    +0.000 C 
BRANCH  14  15
ATOM     15  C7  UNK     0      -2.486  -0.119  -0.565  0.00  0.00    +0.000 A 
ATOM     16  C13 UNK     0      -3.643  -0.662  -1.147  0.00  0.00    +0.000 A 
ATOM     17  C20 UNK     0      -4.732   0.154  -1.459  0.00  0.00    +0.000 A 
ATOM     18  C19 UNK     0      -4.689   1.527  -1.183  0.00  0.00    +0.000 A 
ATOM     19  C15 UNK     0      -3.546   2.080  -0.585  0.00  0.00    +0.000 A 
ATOM     20  C12 UNK     0      -2.454   1.260  -0.275  0.00  0.00    +0.000 A 
BRANCH  18  21
ATOM     21  O4  UNK     0      -5.778   2.339  -1.498  0.00  0.00    +0.000 OA
ATOM     22  H32 UNK     0      -6.614   1.963  -1.929  0.00  0.00    +0.000 HD
ENDBRANCH  18  21
BRANCH  19  23
ATOM     23  O2  UNK     0      -3.477   3.441  -0.286  0.00  0.00    +0.000 OA
ATOM     24  H30 UNK     0      -4.240   4.075  -0.488  0.00  0.00    +0.000 HD
ENDBRANCH  19  23
ENDBRANCH  14  15
ENDBRANCH   2  13
TORSDOF 7
