REMARK  Name = C:\Users\Maximilian\Desktop\Conformers\converted_pdb\conformers_pdb\Butein_conf_5.pdb
REMARK  7 active torsions:
REMARK  status: ('A' for Active; 'I' for Inactive)
REMARK    1  A    between atoms: C9_2  and  C6_3
REMARK    2  A    between atoms: C9_2  and  C14_13
REMARK    3  A    between atoms: C8_4  and  O1_9
REMARK    4  A    between atoms: C18_6  and  O3_11
REMARK    5  A    between atoms: C10_14  and  C7_15
REMARK    6  A    between atoms: C19_18  and  O4_21
REMARK    7  A    between atoms: C15_19  and  O2_23
REMARK                            x       y       z     vdW  Elec       q    Type
REMARK                         _______ _______ _______ _____ _____    ______ ____
ROOT
ATOM      1  O5  UNK     0       1.607  -1.901  -2.800  0.00  0.00    +0.000 OA
ATOM      2  C9  UNK     0       1.303  -1.268  -1.753  0.00  0.00    +0.000 C 
ENDROOT
BRANCH   2   3
ATOM      3  C6  UNK     0       2.375  -0.912  -0.797  0.00  0.00    +0.000 A 
ATOM      4  C8  UNK     0       3.527  -0.201  -1.206  0.00  0.00    +0.000 A 
ATOM      5  C16 UNK     0       4.545   0.062  -0.280  0.00  0.00    +0.000 A 
ATOM      6  C18 UNK     0       4.425  -0.361   1.049  0.00  0.00    +0.000 A 
ATOM      7  C17 UNK     0       3.284  -1.056   1.455  0.00  0.00    +0.000 A 
ATOM      8  C11 UNK     0       2.267  -1.334   0.539  0.00  0.00    +0.000 A 
BRANCH   4   9
ATOM      9  O1  UNK     0       3.682   0.274  -2.510  0.00  0.00    +0.000 OA
ATOM     10  H29 UNK     0       2.962   0.191  -3.216  0.00  0.00    +0.000 HD
ENDBRANCH   4   9
BRANCH   6  11
ATOM     11  O3  UNK     0       5.433  -0.095   1.973  0.00  0.00    +0.000 OA
ATOM     12  H31 UNK     0       6.273   0.407   1.710  0.00  0.00    +0.000 HD
ENDBRANCH   6  11
ENDBRANCH   2   3
BRANCH   2  13
ATOM     13  C14 UNK     0      -0.121  -0.953  -1.511  0.00  0.00    +0.000 C 
ATOM     14  C10 UNK     0      -0.524  -0.055  -0.600  0.00  0.00    +0.000 C 
BRANCH  14  15
ATOM     15  C7  UNK     0      -1.948   0.275  -0.339  0.00  0.00    +0.000 A 
ATOM     16  C13 UNK     0      -2.965   0.052  -1.288  0.00  0.00    +0.000 A 
ATOM     17  C20 UNK     0      -4.289   0.390  -0.997  0.00  0.00    +0.000 A 
ATOM     18  C19 UNK     0      -4.620   0.963   0.237  0.00  0.00    +0.000 A 
ATOM     19  C15 UNK     0      -3.611   1.203   1.184  0.00  0.00    +0.000 A 
ATOM     20  C12 UNK     0      -2.285   0.864   0.891  0.00  0.00    +0.000 A 
BRANCH  18  21
ATOM     21  O4  UNK     0      -5.942   1.296   0.524  0.00  0.00    +0.000 OA
ATOM     22  H32 UNK     0      -6.687   1.134  -0.144  0.00  0.00    +0.000 HD
ENDBRANCH  18  21
BRANCH  19  23
ATOM     23  O2  UNK     0      -3.906   1.776   2.421  0.00  0.00    +0.000 OA
ATOM     24  H30 UNK     0      -4.849   2.039   2.681  0.00  0.00    +0.000 HD
ENDBRANCH  19  23
ENDBRANCH  14  15
ENDBRANCH   2  13
TORSDOF 7
