REMARK  Name = C:\Users\Maximilian\Desktop\Conformers\converted_pdb\conformers_pdb\Butein_conf_3.pdb
REMARK  7 active torsions:
REMARK  status: ('A' for Active; 'I' for Inactive)
REMARK    1  A    between atoms: C9_2  and  C6_3
REMARK    2  A    between atoms: C9_2  and  C14_13
REMARK    3  A    between atoms: C8_4  and  O1_9
REMARK    4  A    between atoms: C18_6  and  O3_11
REMARK    5  A    between atoms: C10_14  and  C7_15
REMARK    6  A    between atoms: C19_18  and  O4_21
REMARK    7  A    between atoms: C15_19  and  O2_23
REMARK                            x       y       z     vdW  Elec       q    Type
REMARK                         _______ _______ _______ _____ _____    ______ ____
ROOT
ATOM      1  O5  UNK     0       0.126   0.098   0.986  0.00  0.00    +0.000 OA
ATOM      2  C9  UNK     0      -0.671  -0.401   0.146  0.00  0.00    +0.000 C 
ENDROOT
BRANCH   2   3
ATOM      3  C6  UNK     0      -2.053   0.121   0.088  0.00  0.00    +0.000 A 
ATOM      4  C8  UNK     0      -3.174  -0.737   0.110  0.00  0.00    +0.000 A 
ATOM      5  C16 UNK     0      -4.467  -0.197   0.039  0.00  0.00    +0.000 A 
ATOM      6  C18 UNK     0      -4.654   1.187  -0.028  0.00  0.00    +0.000 A 
ATOM      7  C17 UNK     0      -3.544   2.040  -0.022  0.00  0.00    +0.000 A 
ATOM      8  C11 UNK     0      -2.253   1.510   0.041  0.00  0.00    +0.000 A 
BRANCH   4   9
ATOM      9  O1  UNK     0      -3.007  -2.117   0.229  0.00  0.00    +0.000 OA
ATOM     10  H29 UNK     0      -3.800  -2.748   0.254  0.00  0.00    +0.000 HD
ENDBRANCH   4   9
BRANCH   6  11
ATOM     11  O3  UNK     0      -5.946   1.703  -0.096  0.00  0.00    +0.000 OA
ATOM     12  H31 UNK     0      -6.116   2.701  -0.144  0.00  0.00    +0.000 HD
ENDBRANCH   6  11
ENDBRANCH   2   3
BRANCH   2  13
ATOM     13  C14 UNK     0      -0.234  -1.491  -0.760  0.00  0.00    +0.000 C 
ATOM     14  C10 UNK     0       1.037  -1.867  -0.976  0.00  0.00    +0.000 C 
BRANCH  14  15
ATOM     15  C7  UNK     0       2.236  -1.153  -0.493  0.00  0.00    +0.000 A 
ATOM     16  C13 UNK     0       3.260  -1.875   0.135  0.00  0.00    +0.000 A 
ATOM     17  C20 UNK     0       4.424  -1.227   0.556  0.00  0.00    +0.000 A 
ATOM     18  C19 UNK     0       4.589   0.145   0.335  0.00  0.00    +0.000 A 
ATOM     19  C15 UNK     0       3.581   0.872  -0.322  0.00  0.00    +0.000 A 
ATOM     20  C12 UNK     0       2.414   0.218  -0.744  0.00  0.00    +0.000 A 
BRANCH  18  21
ATOM     21  O4  UNK     0       5.759   0.766   0.769  0.00  0.00    +0.000 OA
ATOM     22  H32 UNK     0       5.926   1.755   0.632  0.00  0.00    +0.000 HD
ENDBRANCH  18  21
BRANCH  19  23
ATOM     23  O2  UNK     0       3.744   2.236  -0.558  0.00  0.00    +0.000 OA
ATOM     24  H30 UNK     0       3.032   2.782  -1.029  0.00  0.00    +0.000 HD
ENDBRANCH  19  23
ENDBRANCH  14  15
ENDBRANCH   2  13
TORSDOF 7
