REMARK  Name = C:\Users\Maximilian\Desktop\Conformers\converted_pdb\conformers_pdb\Caffeic Acid_conf_3.pdb
REMARK  5 active torsions:
REMARK  status: ('A' for Active; 'I' for Inactive)
REMARK    1  A    between atoms: C5_1  and  C11_7
REMARK    2  A    between atoms: C8_4  and  O1_13
REMARK    3  A    between atoms: C9_5  and  O2_15
REMARK    4  A    between atoms: C12_8  and  C13_9
REMARK    5  A    between atoms: C13_9  and  O3_11
REMARK                            x       y       z     vdW  Elec       q    Type
REMARK                         _______ _______ _______ _____ _____    ______ ____
ROOT
ATOM      1  C5  UNK     0       0.163  -0.469  -0.610  0.00  0.00    +0.000 A 
ATOM      2  C6  UNK     0      -1.149  -0.881  -0.336  0.00  0.00    +0.000 A 
ATOM      3  C7  UNK     0       0.446   0.903  -0.708  0.00  0.00    +0.000 A 
ATOM      4  C8  UNK     0      -2.160   0.065  -0.110  0.00  0.00    +0.000 A 
ATOM      5  C9  UNK     0      -1.860   1.436  -0.179  0.00  0.00    +0.000 A 
ATOM      6  C10 UNK     0      -0.558   1.848  -0.482  0.00  0.00    +0.000 A 
ENDROOT
BRANCH   1   7
ATOM      7  C11 UNK     0       1.197  -1.486  -0.894  0.00  0.00    +0.000 C 
ATOM      8  C12 UNK     0       2.435  -1.499  -0.379  0.00  0.00    +0.000 C 
BRANCH   8   9
ATOM      9  C13 UNK     0       2.921  -0.620   0.701  0.00  0.00    +0.000 C 
ATOM     10  O4  UNK     0       4.162  -0.508   0.890  0.00  0.00    +0.000 OA
BRANCH   9  11
ATOM     11  O3  UNK     0       2.037   0.037   1.553  0.00  0.00    +0.000 OA
ATOM     12  H21 UNK     0       2.378   0.625   2.304  0.00  0.00    +0.000 HD
ENDBRANCH   9  11
ENDBRANCH   8   9
ENDBRANCH   1   7
BRANCH   4  13
ATOM     13  O1  UNK     0      -3.458  -0.353   0.180  0.00  0.00    +0.000 OA
ATOM     14  H19 UNK     0      -3.699  -1.336   0.235  0.00  0.00    +0.000 HD
ENDBRANCH   4  13
BRANCH   5  15
ATOM     15  O2  UNK     0      -2.842   2.401   0.044  0.00  0.00    +0.000 OA
ATOM     16  H20 UNK     0      -3.799   2.154   0.265  0.00  0.00    +0.000 HD
ENDBRANCH   5  15
TORSDOF 5
