REMARK  Name = C:\Users\Maximilian\Desktop\Conformers\converted_pdb\conformers_pdb\Caffeic Acid_conf_1.pdb
REMARK  5 active torsions:
REMARK  status: ('A' for Active; 'I' for Inactive)
REMARK    1  A    between atoms: C5_1  and  C11_7
REMARK    2  A    between atoms: C8_4  and  O1_13
REMARK    3  A    between atoms: C9_5  and  O2_15
REMARK    4  A    between atoms: C12_8  and  C13_9
REMARK    5  A    between atoms: C13_9  and  O3_11
REMARK                            x       y       z     vdW  Elec       q    Type
REMARK                         _______ _______ _______ _____ _____    ______ ____
ROOT
ATOM      1  C5  UNK     0       0.054   0.235  -0.239  0.00  0.00    +0.000 A 
ATOM      2  C6  UNK     0      -0.590  -0.931   0.223  0.00  0.00    +0.000 A 
ATOM      3  C7  UNK     0      -0.727   1.355  -0.567  0.00  0.00    +0.000 A 
ATOM      4  C8  UNK     0      -1.981  -0.964   0.377  0.00  0.00    +0.000 A 
ATOM      5  C9  UNK     0      -2.748   0.169   0.061  0.00  0.00    +0.000 A 
ATOM      6  C10 UNK     0      -2.115   1.324  -0.413  0.00  0.00    +0.000 A 
ENDROOT
BRANCH   1   7
ATOM      7  C11 UNK     0       1.524   0.314  -0.429  0.00  0.00    +0.000 C 
ATOM      8  C12 UNK     0       2.399  -0.487   0.194  0.00  0.00    +0.000 C 
BRANCH   8   9
ATOM      9  C13 UNK     0       3.850  -0.365  -0.015  0.00  0.00    +0.000 C 
ATOM     10  O4  UNK     0       4.632  -1.128   0.611  0.00  0.00    +0.000 OA
BRANCH   9  11
ATOM     11  O3  UNK     0       4.369   0.580  -0.898  0.00  0.00    +0.000 OA
ATOM     12  H21 UNK     0       5.368   0.663  -1.042  0.00  0.00    +0.000 HD
ENDBRANCH   9  11
ENDBRANCH   8   9
ENDBRANCH   1   7
BRANCH   4  13
ATOM     13  O1  UNK     0      -2.583  -2.134   0.840  0.00  0.00    +0.000 OA
ATOM     14  H19 UNK     0      -3.585  -2.211   0.966  0.00  0.00    +0.000 HD
ENDBRANCH   4  13
BRANCH   5  15
ATOM     15  O2  UNK     0      -4.133   0.142   0.216  0.00  0.00    +0.000 OA
ATOM     16  H20 UNK     0      -4.708   0.946  -0.007  0.00  0.00    +0.000 HD
ENDBRANCH   5  15
TORSDOF 5
