REMARK  Name = C:\Users\Maximilian\Desktop\Conformers\converted_pdb\conformers_pdb\Caffeic Acid_conf_4.pdb
REMARK  5 active torsions:
REMARK  status: ('A' for Active; 'I' for Inactive)
REMARK    1  A    between atoms: C5_1  and  C11_7
REMARK    2  A    between atoms: C8_4  and  O1_13
REMARK    3  A    between atoms: C9_5  and  O2_15
REMARK    4  A    between atoms: C12_8  and  C13_9
REMARK    5  A    between atoms: C13_9  and  O3_11
REMARK                            x       y       z     vdW  Elec       q    Type
REMARK                         _______ _______ _______ _____ _____    ______ ____
ROOT
ATOM      1  C5  UNK     0      -0.035  -0.889  -0.029  0.00  0.00    +0.000 A 
ATOM      2  C6  UNK     0      -0.126   0.259   0.777  0.00  0.00    +0.000 A 
ATOM      3  C7  UNK     0      -1.185  -1.374  -0.666  0.00  0.00    +0.000 A 
ATOM      4  C8  UNK     0      -1.343   0.945   0.900  0.00  0.00    +0.000 A 
ATOM      5  C9  UNK     0      -2.484   0.469   0.231  0.00  0.00    +0.000 A 
ATOM      6  C10 UNK     0      -2.399  -0.692  -0.546  0.00  0.00    +0.000 A 
ENDROOT
BRANCH   1   7
ATOM      7  C11 UNK     0       1.225  -1.655  -0.130  0.00  0.00    +0.000 C 
ATOM      8  C12 UNK     0       2.433  -1.134  -0.397  0.00  0.00    +0.000 C 
BRANCH   8   9
ATOM      9  C13 UNK     0       2.700   0.257  -0.814  0.00  0.00    +0.000 C 
ATOM     10  O4  UNK     0       1.784   0.992  -1.272  0.00  0.00    +0.000 OA
BRANCH   9  11
ATOM     11  O3  UNK     0       4.002   0.740  -0.755  0.00  0.00    +0.000 OA
ATOM     12  H21 UNK     0       4.221   1.683  -1.053  0.00  0.00    +0.000 HD
ENDBRANCH   9  11
ENDBRANCH   8   9
ENDBRANCH   1   7
BRANCH   4  13
ATOM     13  O1  UNK     0      -1.424   2.093   1.687  0.00  0.00    +0.000 OA
ATOM     14  H19 UNK     0      -0.616   2.456   2.180  0.00  0.00    +0.000 HD
ENDBRANCH   4  13
BRANCH   5  15
ATOM     15  O2  UNK     0      -3.708   1.130   0.331  0.00  0.00    +0.000 OA
ATOM     16  H20 UNK     0      -3.821   1.972   0.881  0.00  0.00    +0.000 HD
ENDBRANCH   5  15
TORSDOF 5
