REMARK  Name = C:\Users\Maximilian\Desktop\Conformers\converted_pdb\conformers_pdb\Caffeic Acid_conf_2.pdb
REMARK  5 active torsions:
REMARK  status: ('A' for Active; 'I' for Inactive)
REMARK    1  A    between atoms: C5_1  and  C11_7
REMARK    2  A    between atoms: C8_4  and  O1_13
REMARK    3  A    between atoms: C9_5  and  O2_15
REMARK    4  A    between atoms: C12_8  and  C13_9
REMARK    5  A    between atoms: C13_9  and  O3_11
REMARK                            x       y       z     vdW  Elec       q    Type
REMARK                         _______ _______ _______ _____ _____    ______ ____
ROOT
ATOM      1  C5  UNK     0       0.067  -0.067   0.081  0.00  0.00    +0.000 A 
ATOM      2  C6  UNK     0      -0.807  -1.067   0.540  0.00  0.00    +0.000 A 
ATOM      3  C7  UNK     0      -0.475   1.150  -0.380  0.00  0.00    +0.000 A 
ATOM      4  C8  UNK     0      -2.193  -0.874   0.517  0.00  0.00    +0.000 A 
ATOM      5  C9  UNK     0      -2.723   0.336   0.042  0.00  0.00    +0.000 A 
ATOM      6  C10 UNK     0      -1.858   1.344  -0.403  0.00  0.00    +0.000 A 
ENDROOT
BRANCH   1   7
ATOM      7  C11 UNK     0       1.528  -0.320   0.137  0.00  0.00    +0.000 C 
ATOM      8  C12 UNK     0       2.427   0.343  -0.602  0.00  0.00    +0.000 C 
BRANCH   8   9
ATOM      9  C13 UNK     0       3.867   0.050  -0.523  0.00  0.00    +0.000 C 
ATOM     10  O4  UNK     0       4.670   0.688  -1.255  0.00  0.00    +0.000 OA
BRANCH   9  11
ATOM     11  O3  UNK     0       4.353  -0.920   0.351  0.00  0.00    +0.000 OA
ATOM     12  H21 UNK     0       5.344  -1.121   0.406  0.00  0.00    +0.000 HD
ENDBRANCH   9  11
ENDBRANCH   8   9
ENDBRANCH   1   7
BRANCH   4  13
ATOM     13  O1  UNK     0      -3.026  -1.896   0.972  0.00  0.00    +0.000 OA
ATOM     14  H19 UNK     0      -4.035  -1.806   0.977  0.00  0.00    +0.000 HD
ENDBRANCH   4  13
BRANCH   5  15
ATOM     15  O2  UNK     0      -4.103   0.534   0.016  0.00  0.00    +0.000 OA
ATOM     16  H20 UNK     0      -4.508   1.399  -0.322  0.00  0.00    +0.000 HD
ENDBRANCH   5  15
TORSDOF 5
