REMARK  5 active torsions:
REMARK  status: ('A' for Active; 'I' for Inactive)
REMARK    1  A    between atoms: O1_1  and  C8_8 
REMARK    2  A    between atoms: O2_2  and  C9_9 
REMARK    3  A    between atoms: O3_3  and  C13_13 
REMARK    4  A    between atoms: C5_5  and  C11_11 
REMARK    5  A    between atoms: C12_12  and  C13_13 
ROOT
HETATM    1  C5          0       4.155  -0.199   0.000  1.00  0.00    -0.033 A 
HETATM    2  C6          0       2.987  -0.838  -0.000  1.00  0.00     0.050 A 
HETATM    3  C7          0       5.407  -0.961   0.000  1.00  0.00     0.014 A 
HETATM    4  C8          0       2.953  -2.301   0.000  1.00  0.00     0.099 A 
HETATM    5  C9          0       4.089  -2.994  -0.000  1.00  0.00     0.098 A 
HETATM    6  C10         0       5.375  -2.293   0.000  1.00  0.00     0.040 A 
ENDROOT
BRANCH   1   7
HETATM    7  C11         0       4.184   1.262   0.000  1.00  0.00     0.018 C 
HETATM    8  C12         0       5.347   1.909   0.000  1.00  0.00     0.082 C 
BRANCH   8   9
HETATM    9  C13         0       5.362   3.370   0.000  1.00  0.00     0.165 C 
HETATM   10  O4          0       4.298   3.998   0.000  1.00  0.00    -0.647 OA
BRANCH   9  11
HETATM   11  O3          0       6.572   4.054   0.000  1.00  0.00    -0.773 OA
HETATM   12  H21         0       6.400   5.029   0.000  1.00  0.00     0.167 HD
ENDBRANCH   9  11
ENDBRANCH   8   9
ENDBRANCH   1   7
BRANCH   4  13
HETATM   13  O1          0       1.734  -2.966  -0.000  1.00  0.00    -0.358 OA
HETATM   14  H19         0       0.998  -2.304  -0.000  1.00  0.00     0.217 HD
ENDBRANCH   4  13
BRANCH   5  15
HETATM   15  O2          0       4.054  -4.383  -0.000  1.00  0.00    -0.358 OA
HETATM   16  H20         0       4.979  -4.735  -0.000  1.00  0.00     0.217 HD
ENDBRANCH   5  15
TORSDOF 5
