REMARK  Name = C:\Users\Maximilian\Desktop\Conformers\converted_pdb\conformers_pdb\Cardamonin_conf_4.pdb
REMARK  7 active torsions:
REMARK  status: ('A' for Active; 'I' for Inactive)
REMARK    1  A    between atoms: C5_1  and  C8_7
REMARK    2  A    between atoms: C6_2  and  O1_19
REMARK    3  A    between atoms: C7_3  and  O2_17
REMARK    4  A    between atoms: C11_6  and  O3_21
REMARK    5  A    between atoms: C8_7  and  C12_9
REMARK    6  A    between atoms: C14_10  and  C13_11
REMARK    7  A    between atoms: O1_19  and  C20_20
REMARK                            x       y       z     vdW  Elec       q    Type
REMARK                         _______ _______ _______ _____ _____    ______ ____
ROOT
ATOM      1  C5  UNK     0      -1.737  -1.296   0.654  0.00  0.00    +0.000 A 
ATOM      2  C6  UNK     0      -2.156  -0.021   0.213  0.00  0.00    +0.000 A 
ATOM      3  C7  UNK     0      -2.353  -2.456   0.130  0.00  0.00    +0.000 A 
ATOM      4  C9  UNK     0      -3.177   0.076  -0.751  0.00  0.00    +0.000 A 
ATOM      5  C10 UNK     0      -3.374  -2.333  -0.817  0.00  0.00    +0.000 A 
ATOM      6  C11 UNK     0      -3.785  -1.076  -1.261  0.00  0.00    +0.000 A 
ENDROOT
BRANCH   1   7
ATOM      7  C8  UNK     0      -0.679  -1.402   1.684  0.00  0.00    +0.000 C 
ATOM      8  O4  UNK     0      -0.959  -1.940   2.788  0.00  0.00    +0.000 OA
BRANCH   7   9
ATOM      9  C12 UNK     0       0.690  -0.881   1.479  0.00  0.00    +0.000 C 
ATOM     10  C14 UNK     0       1.151  -0.494   0.280  0.00  0.00    +0.000 C 
BRANCH  10  11
ATOM     11  C13 UNK     0       2.514   0.049   0.059  0.00  0.00    +0.000 A 
ATOM     12  C16 UNK     0       2.746   0.835  -1.083  0.00  0.00    +0.000 A 
ATOM     13  C18 UNK     0       4.017   1.361  -1.337  0.00  0.00    +0.000 A 
ATOM     14  C19 UNK     0       5.071   1.099  -0.461  0.00  0.00    +0.000 A 
ATOM     15  C17 UNK     0       4.859   0.306   0.669  0.00  0.00    +0.000 A 
ATOM     16  C15 UNK     0       3.590  -0.222   0.929  0.00  0.00    +0.000 A 
ENDBRANCH  10  11
ENDBRANCH   7   9
ENDBRANCH   1   7
BRANCH   3  17
ATOM     17  O2  UNK     0      -1.962  -3.740   0.515  0.00  0.00    +0.000 OA
ATOM     18  H30 UNK     0      -1.195  -3.916   1.152  0.00  0.00    +0.000 HD
ENDBRANCH   3  17
BRANCH   2  19
ATOM     19  O1  UNK     0      -1.546   1.121   0.760  0.00  0.00    +0.000 OA
ATOM     20  C20 UNK     0      -1.843   2.459   0.377  0.00  0.00    +0.000 C 
ENDBRANCH   2  19
BRANCH   6  21
ATOM     21  O3  UNK     0      -4.799  -0.983  -2.211  0.00  0.00    +0.000 OA
ATOM     22  H34 UNK     0      -5.122  -0.086  -2.556  0.00  0.00    +0.000 HD
ENDBRANCH   6  21
TORSDOF 6
