REMARK  Name = C:\Users\Maximilian\Desktop\Conformers\converted_pdb\conformers_pdb\Cardamonin_conf_8.pdb
REMARK  7 active torsions:
REMARK  status: ('A' for Active; 'I' for Inactive)
REMARK    1  A    between atoms: C5_1  and  C8_7
REMARK    2  A    between atoms: C6_2  and  O1_19
REMARK    3  A    between atoms: C7_3  and  O2_17
REMARK    4  A    between atoms: C11_6  and  O3_21
REMARK    5  A    between atoms: C8_7  and  C12_9
REMARK    6  A    between atoms: C14_10  and  C13_11
REMARK    7  A    between atoms: O1_19  and  C20_20
REMARK                            x       y       z     vdW  Elec       q    Type
REMARK                         _______ _______ _______ _____ _____    ______ ____
ROOT
ATOM      1  C5  UNK     0      -1.916   0.031   1.122  0.00  0.00    +0.000 A 
ATOM      2  C6  UNK     0      -2.353   0.400  -0.170  0.00  0.00    +0.000 A 
ATOM      3  C7  UNK     0      -2.616   0.503   2.258  0.00  0.00    +0.000 A 
ATOM      4  C9  UNK     0      -3.478   1.236  -0.308  0.00  0.00    +0.000 A 
ATOM      5  C10 UNK     0      -3.740   1.317   2.094  0.00  0.00    +0.000 A 
ATOM      6  C11 UNK     0      -4.170   1.688   0.817  0.00  0.00    +0.000 A 
ENDROOT
BRANCH   1   7
ATOM      7  C8  UNK     0      -0.751  -0.868   1.271  0.00  0.00    +0.000 C 
ATOM      8  O4  UNK     0      -0.877  -1.939   1.925  0.00  0.00    +0.000 OA
BRANCH   7   9
ATOM      9  C12 UNK     0       0.545  -0.514   0.656  0.00  0.00    +0.000 C 
ATOM     10  C14 UNK     0       1.600  -1.341   0.689  0.00  0.00    +0.000 C 
BRANCH  10  11
ATOM     11  C13 UNK     0       2.912  -1.027   0.072  0.00  0.00    +0.000 A 
ATOM     12  C16 UNK     0       3.329   0.294  -0.195  0.00  0.00    +0.000 A 
ATOM     13  C18 UNK     0       4.581   0.537  -0.769  0.00  0.00    +0.000 A 
ATOM     14  C19 UNK     0       5.433  -0.526  -1.075  0.00  0.00    +0.000 A 
ATOM     15  C17 UNK     0       5.037  -1.837  -0.800  0.00  0.00    +0.000 A 
ATOM     16  C15 UNK     0       3.787  -2.087  -0.226  0.00  0.00    +0.000 A 
ENDBRANCH  10  11
ENDBRANCH   7   9
ENDBRANCH   1   7
BRANCH   3  17
ATOM     17  O2  UNK     0      -2.208   0.203   3.560  0.00  0.00    +0.000 OA
ATOM     18  H30 UNK     0      -1.362  -0.309   3.772  0.00  0.00    +0.000 HD
ENDBRANCH   3  17
BRANCH   2  19
ATOM     19  O1  UNK     0      -1.662  -0.093  -1.290  0.00  0.00    +0.000 OA
ATOM     20  C20 UNK     0      -1.991   0.208  -2.643  0.00  0.00    +0.000 C 
ENDBRANCH   2  19
BRANCH   6  21
ATOM     21  O3  UNK     0      -5.285   2.507   0.654  0.00  0.00    +0.000 OA
ATOM     22  H34 UNK     0      -5.810   2.852   1.449  0.00  0.00    +0.000 HD
ENDBRANCH   6  21
TORSDOF 6
