REMARK  Name = C:\Users\Maximilian\Desktop\Conformers\converted_pdb\conformers_pdb\Cardamonin_conf_1.pdb
REMARK  7 active torsions:
REMARK  status: ('A' for Active; 'I' for Inactive)
REMARK    1  A    between atoms: C5_1  and  C8_7
REMARK    2  A    between atoms: C6_2  and  O1_19
REMARK    3  A    between atoms: C7_3  and  O2_17
REMARK    4  A    between atoms: C11_6  and  O3_21
REMARK    5  A    between atoms: C8_7  and  C12_9
REMARK    6  A    between atoms: C14_10  and  C13_11
REMARK    7  A    between atoms: O1_19  and  C20_20
REMARK                            x       y       z     vdW  Elec       q    Type
REMARK                         _______ _______ _______ _____ _____    ______ ____
ROOT
ATOM      1  C5  UNK     0      -1.813   0.019  -0.233  0.00  0.00    +0.000 A 
ATOM      2  C6  UNK     0      -2.849  -0.445   0.608  0.00  0.00    +0.000 A 
ATOM      3  C7  UNK     0      -1.896   1.312  -0.793  0.00  0.00    +0.000 A 
ATOM      4  C9  UNK     0      -3.943   0.397   0.886  0.00  0.00    +0.000 A 
ATOM      5  C10 UNK     0      -2.988   2.136  -0.495  0.00  0.00    +0.000 A 
ATOM      6  C11 UNK     0      -4.010   1.681   0.342  0.00  0.00    +0.000 A 
ENDROOT
BRANCH   1   7
ATOM      7  C8  UNK     0      -0.658  -0.861  -0.535  0.00  0.00    +0.000 C 
ATOM      8  O4  UNK     0      -0.866  -2.068  -0.839  0.00  0.00    +0.000 OA
BRANCH   7   9
ATOM      9  C12 UNK     0       0.725  -0.344  -0.455  0.00  0.00    +0.000 C 
ATOM     10  C14 UNK     0       1.786  -1.086  -0.802  0.00  0.00    +0.000 C 
BRANCH  10  11
ATOM     11  C13 UNK     0       3.187  -0.605  -0.722  0.00  0.00    +0.000 A 
ATOM     12  C16 UNK     0       4.223  -1.554  -0.671  0.00  0.00    +0.000 A 
ATOM     13  C18 UNK     0       5.559  -1.146  -0.605  0.00  0.00    +0.000 A 
ATOM     14  C19 UNK     0       5.876   0.214  -0.601  0.00  0.00    +0.000 A 
ATOM     15  C17 UNK     0       4.858   1.168  -0.669  0.00  0.00    +0.000 A 
ATOM     16  C15 UNK     0       3.520   0.766  -0.734  0.00  0.00    +0.000 A 
ENDBRANCH  10  11
ENDBRANCH   7   9
ENDBRANCH   1   7
BRANCH   3  17
ATOM     17  O2  UNK     0      -0.906   1.769  -1.664  0.00  0.00    +0.000 OA
ATOM     18  H30 UNK     0      -0.948   2.692  -2.082  0.00  0.00    +0.000 HD
ENDBRANCH   3  17
BRANCH   2  19
ATOM     19  O1  UNK     0      -2.754  -1.734   1.160  0.00  0.00    +0.000 OA
ATOM     20  C20 UNK     0      -3.724  -2.319   2.024  0.00  0.00    +0.000 C 
ENDBRANCH   2  19
BRANCH   6  21
ATOM     21  O3  UNK     0      -5.101   2.496   0.637  0.00  0.00    +0.000 OA
ATOM     22  H34 UNK     0      -5.180   3.433   0.258  0.00  0.00    +0.000 HD
ENDBRANCH   6  21
TORSDOF 6
