REMARK  Name = C:\Users\Maximilian\Desktop\Conformers\converted_pdb\conformers_pdb\Cardamonin_conf_3.pdb
REMARK  7 active torsions:
REMARK  status: ('A' for Active; 'I' for Inactive)
REMARK    1  A    between atoms: C5_1  and  C8_7
REMARK    2  A    between atoms: C6_2  and  O1_19
REMARK    3  A    between atoms: C7_3  and  O2_17
REMARK    4  A    between atoms: C11_6  and  O3_21
REMARK    5  A    between atoms: C8_7  and  C12_9
REMARK    6  A    between atoms: C14_10  and  C13_11
REMARK    7  A    between atoms: O1_19  and  C20_20
REMARK                            x       y       z     vdW  Elec       q    Type
REMARK                         _______ _______ _______ _____ _____    ______ ____
ROOT
ATOM      1  C5  UNK     0      -1.908   0.730  -0.738  0.00  0.00    +0.000 A 
ATOM      2  C6  UNK     0      -2.380  -0.316   0.087  0.00  0.00    +0.000 A 
ATOM      3  C7  UNK     0      -2.711   1.879  -0.937  0.00  0.00    +0.000 A 
ATOM      4  C9  UNK     0      -3.641  -0.199   0.701  0.00  0.00    +0.000 A 
ATOM      5  C10 UNK     0      -3.968   1.963  -0.330  0.00  0.00    +0.000 A 
ATOM      6  C11 UNK     0      -4.432   0.931   0.489  0.00  0.00    +0.000 A 
ENDROOT
BRANCH   1   7
ATOM      7  C8  UNK     0      -0.595   0.600  -1.406  0.00  0.00    +0.000 C 
ATOM      8  O4  UNK     0      -0.527   0.714  -2.661  0.00  0.00    +0.000 OA
BRANCH   7   9
ATOM      9  C12 UNK     0       0.622   0.337  -0.611  0.00  0.00    +0.000 C 
ATOM     10  C14 UNK     0       1.815   0.122  -1.182  0.00  0.00    +0.000 C 
BRANCH  10  11
ATOM     11  C13 UNK     0       3.056  -0.159  -0.417  0.00  0.00    +0.000 A 
ATOM     12  C16 UNK     0       3.216   0.212   0.934  0.00  0.00    +0.000 A 
ATOM     13  C18 UNK     0       4.410  -0.066   1.607  0.00  0.00    +0.000 A 
ATOM     14  C19 UNK     0       5.457  -0.708   0.942  0.00  0.00    +0.000 A 
ATOM     15  C17 UNK     0       5.316  -1.067  -0.399  0.00  0.00    +0.000 A 
ATOM     16  C15 UNK     0       4.125  -0.790  -1.078  0.00  0.00    +0.000 A 
ENDBRANCH  10  11
ENDBRANCH   7   9
ENDBRANCH   1   7
BRANCH   3  17
ATOM     17  O2  UNK     0      -2.283   2.961  -1.710  0.00  0.00    +0.000 OA
ATOM     18  H30 UNK     0      -1.359   3.019  -2.117  0.00  0.00    +0.000 HD
ENDBRANCH   3  17
BRANCH   2  19
ATOM     19  O1  UNK     0      -1.582  -1.460   0.259  0.00  0.00    +0.000 OA
ATOM     20  C20 UNK     0      -1.932  -2.579   1.068  0.00  0.00    +0.000 C 
ENDBRANCH   2  19
BRANCH   6  21
ATOM     21  O3  UNK     0      -5.681   1.019   1.101  0.00  0.00    +0.000 OA
ATOM     22  H34 UNK     0      -6.280   1.826   0.969  0.00  0.00    +0.000 HD
ENDBRANCH   6  21
TORSDOF 6
