REMARK  Name = C:\Users\Maximilian\Desktop\Conformers\converted_pdb\conformers_pdb\Cardamonin_conf_9.pdb
REMARK  7 active torsions:
REMARK  status: ('A' for Active; 'I' for Inactive)
REMARK    1  A    between atoms: C5_1  and  C8_7
REMARK    2  A    between atoms: C6_2  and  O1_19
REMARK    3  A    between atoms: C7_3  and  O2_17
REMARK    4  A    between atoms: C11_6  and  O3_21
REMARK    5  A    between atoms: C8_7  and  C12_9
REMARK    6  A    between atoms: C14_10  and  C13_11
REMARK    7  A    between atoms: O1_19  and  C20_20
REMARK                            x       y       z     vdW  Elec       q    Type
REMARK                         _______ _______ _______ _____ _____    ______ ____
ROOT
ATOM      1  C5  UNK     0      -1.408  -0.259  -0.211  0.00  0.00    +0.000 A 
ATOM      2  C6  UNK     0      -2.396  -0.105   0.786  0.00  0.00    +0.000 A 
ATOM      3  C7  UNK     0      -1.793  -0.489  -1.547  0.00  0.00    +0.000 A 
ATOM      4  C9  UNK     0      -3.756  -0.149   0.423  0.00  0.00    +0.000 A 
ATOM      5  C10 UNK     0      -3.150  -0.539  -1.886  0.00  0.00    +0.000 A 
ATOM      6  C11 UNK     0      -4.131  -0.365  -0.905  0.00  0.00    +0.000 A 
ENDROOT
BRANCH   1   7
ATOM      7  C8  UNK     0       0.029  -0.207   0.131  0.00  0.00    +0.000 C 
ATOM      8  O4  UNK     0       0.764  -1.181  -0.185  0.00  0.00    +0.000 OA
BRANCH   7   9
ATOM      9  C12 UNK     0       0.587   0.962   0.852  0.00  0.00    +0.000 C 
ATOM     10  C14 UNK     0       1.891   1.268   0.952  0.00  0.00    +0.000 C 
BRANCH  10  11
ATOM     11  C13 UNK     0       2.984   0.604   0.213  0.00  0.00    +0.000 A 
ATOM     12  C16 UNK     0       2.925   0.441  -1.183  0.00  0.00    +0.000 A 
ATOM     13  C18 UNK     0       3.994  -0.145  -1.869  0.00  0.00    +0.000 A 
ATOM     14  C19 UNK     0       5.135  -0.551  -1.172  0.00  0.00    +0.000 A 
ATOM     15  C17 UNK     0       5.213  -0.364   0.211  0.00  0.00    +0.000 A 
ATOM     16  C15 UNK     0       4.146   0.222   0.901  0.00  0.00    +0.000 A 
ENDBRANCH  10  11
ENDBRANCH   7   9
ENDBRANCH   1   7
BRANCH   3  17
ATOM     17  O2  UNK     0      -0.824  -0.652  -2.537  0.00  0.00    +0.000 OA
ATOM     18  H30 UNK     0      -1.074  -0.814  -3.505  0.00  0.00    +0.000 HD
ENDBRANCH   3  17
BRANCH   2  19
ATOM     19  O1  UNK     0      -1.997   0.066   2.123  0.00  0.00    +0.000 OA
ATOM     20  C20 UNK     0      -2.889   0.235   3.220  0.00  0.00    +0.000 C 
ENDBRANCH   2  19
BRANCH   6  21
ATOM     21  O3  UNK     0      -5.483  -0.408  -1.238  0.00  0.00    +0.000 OA
ATOM     22  H34 UNK     0      -5.789  -0.564  -2.192  0.00  0.00    +0.000 HD
ENDBRANCH   6  21
TORSDOF 6
