REMARK  6 active torsions:
REMARK  status: ('A' for Active; 'I' for Inactive)
REMARK    1  A    between atoms: O1_1  and  C6_6 
REMARK    2  A    between atoms: O2_2  and  C7_7 
REMARK    3  A    between atoms: O3_3  and  C11_11 
REMARK    4  A    between atoms: C5_5  and  C8_8 
REMARK    5  A    between atoms: C8_8  and  C12_12 
REMARK    6  A    between atoms: C13_13  and  C14_14 
ROOT
HETATM    1  C5          0       3.612  -1.178  -0.000  1.00  0.00     0.081 A 
HETATM    2  C6          0       4.849  -2.022   0.000  1.00  0.00     0.087 A 
HETATM    3  C7          0       2.418  -1.783   0.000  1.00  0.00     0.085 A 
HETATM    4  C9          0       4.733  -3.353  -0.000  1.00  0.00     0.074 A 
HETATM    5  C10         0       2.321  -3.241   0.000  1.00  0.00     0.074 A 
HETATM    6  C11         0       3.420  -3.987   0.000  1.00  0.00     0.071 A 
ENDROOT
BRANCH   1   7
HETATM    7  C8          0       3.661   0.323   0.000  1.00  0.00     0.187 C 
HETATM    8  O4          0       2.605   0.964   0.000  1.00  0.00    -0.287 OA
BRANCH   7   9
HETATM    9  C12         0       4.918   1.079  -0.000  1.00  0.00     0.056 C 
HETATM   10  C14         0       4.857   2.410  -0.000  1.00  0.00     0.015 C 
BRANCH  10  11
HETATM   11  C13         0       6.066   3.238  -0.000  1.00  0.00    -0.036 A 
HETATM   12  C16         0       5.939   4.699  -0.000  1.00  0.00     0.011 A 
HETATM   13  C18         0       7.028   5.466  -0.000  1.00  0.00     0.001 A 
HETATM   14  C19         0       8.356   4.850  -0.000  1.00  0.00     0.000 A 
HETATM   15  C17         0       8.474   3.522  -0.000  1.00  0.00     0.001 A 
HETATM   16  C15         0       7.274   2.676  -0.000  1.00  0.00     0.011 A 
ENDBRANCH  10  11
ENDBRANCH   7   9
ENDBRANCH   1   7
BRANCH   3  17
HETATM   17  O2          0       1.247  -1.036   0.000  1.00  0.00    -0.360 OA
HETATM   18  H30         0       0.468  -1.645   0.000  1.00  0.00     0.217 HD
ENDBRANCH   3  17
BRANCH   2  19
HETATM   19  O1          0       6.129  -1.435  -0.000  1.00  0.00    -0.355 OA
HETATM   20  C20         0       7.169  -2.428  -0.000  1.00  0.00     0.210 C 
ENDBRANCH   2  19
BRANCH   6  21
HETATM   21  O3          0       3.316  -5.374   0.000  1.00  0.00    -0.361 OA
HETATM   22  H34         0       2.360  -5.633   0.000  1.00  0.00     0.217 HD
ENDBRANCH   6  21
TORSDOF 6
