REMARK  Name = C:\Users\Maximilian\Desktop\Conformers\converted_pdb\conformers_pdb\Cardamonin_conf_5.pdb
REMARK  7 active torsions:
REMARK  status: ('A' for Active; 'I' for Inactive)
REMARK    1  A    between atoms: C5_1  and  C8_7
REMARK    2  A    between atoms: C6_2  and  O1_19
REMARK    3  A    between atoms: C7_3  and  O2_17
REMARK    4  A    between atoms: C11_6  and  O3_21
REMARK    5  A    between atoms: C8_7  and  C12_9
REMARK    6  A    between atoms: C14_10  and  C13_11
REMARK    7  A    between atoms: O1_19  and  C20_20
REMARK                            x       y       z     vdW  Elec       q    Type
REMARK                         _______ _______ _______ _____ _____    ______ ____
ROOT
ATOM      1  C5  UNK     0      -1.398  -0.278   0.224  0.00  0.00    +0.000 A 
ATOM      2  C6  UNK     0      -2.362   0.700  -0.114  0.00  0.00    +0.000 A 
ATOM      3  C7  UNK     0      -1.790  -1.630   0.336  0.00  0.00    +0.000 A 
ATOM      4  C9  UNK     0      -3.699   0.311  -0.324  0.00  0.00    +0.000 A 
ATOM      5  C10 UNK     0      -3.127  -1.992   0.133  0.00  0.00    +0.000 A 
ATOM      6  C11 UNK     0      -4.079  -1.029  -0.197  0.00  0.00    +0.000 A 
ENDROOT
BRANCH   1   7
ATOM      7  C8  UNK     0       0.016   0.114   0.440  0.00  0.00    +0.000 C 
ATOM      8  O4  UNK     0       0.540   0.982  -0.310  0.00  0.00    +0.000 OA
BRANCH   7   9
ATOM      9  C12 UNK     0       0.784  -0.443   1.577  0.00  0.00    +0.000 C 
ATOM     10  C14 UNK     0       2.122  -0.516   1.646  0.00  0.00    +0.000 C 
BRANCH  10  11
ATOM     11  C13 UNK     0       3.052  -0.233   0.532  0.00  0.00    +0.000 A 
ATOM     12  C16 UNK     0       2.843  -0.772  -0.750  0.00  0.00    +0.000 A 
ATOM     13  C18 UNK     0       3.761  -0.527  -1.776  0.00  0.00    +0.000 A 
ATOM     14  C19 UNK     0       4.903   0.239  -1.525  0.00  0.00    +0.000 A 
ATOM     15  C17 UNK     0       5.132   0.753  -0.246  0.00  0.00    +0.000 A 
ATOM     16  C15 UNK     0       4.216   0.510   0.782  0.00  0.00    +0.000 A 
ENDBRANCH  10  11
ENDBRANCH   7   9
ENDBRANCH   1   7
BRANCH   3  17
ATOM     17  O2  UNK     0      -0.848  -2.617   0.628  0.00  0.00    +0.000 OA
ATOM     18  H30 UNK     0      -1.106  -3.594   0.706  0.00  0.00    +0.000 HD
ENDBRANCH   3  17
BRANCH   2  19
ATOM     19  O1  UNK     0      -1.964   2.044  -0.217  0.00  0.00    +0.000 OA
ATOM     20  C20 UNK     0      -2.832   3.124  -0.546  0.00  0.00    +0.000 C 
ENDBRANCH   2  19
BRANCH   6  21
ATOM     21  O3  UNK     0      -5.403  -1.414  -0.398  0.00  0.00    +0.000 OA
ATOM     22  H34 UNK     0      -6.120  -0.740  -0.640  0.00  0.00    +0.000 HD
ENDBRANCH   6  21
TORSDOF 6
