REMARK  Name = C:\Users\Maximilian\Desktop\Conformers\converted_pdb\conformers_pdb\Cardamonin_conf_11.pdb
REMARK  7 active torsions:
REMARK  status: ('A' for Active; 'I' for Inactive)
REMARK    1  A    between atoms: C5_1  and  C8_7
REMARK    2  A    between atoms: C6_2  and  O1_19
REMARK    3  A    between atoms: C7_3  and  O2_17
REMARK    4  A    between atoms: C11_6  and  O3_21
REMARK    5  A    between atoms: C8_7  and  C12_9
REMARK    6  A    between atoms: C14_10  and  C13_11
REMARK    7  A    between atoms: O1_19  and  C20_20
REMARK                            x       y       z     vdW  Elec       q    Type
REMARK                         _______ _______ _______ _____ _____    ______ ____
ROOT
ATOM      1  C5  UNK     0      -0.959  -0.270   1.140  0.00  0.00    +0.000 A 
ATOM      2  C6  UNK     0      -1.681   0.014  -0.039  0.00  0.00    +0.000 A 
ATOM      3  C7  UNK     0      -0.335   0.786   1.848  0.00  0.00    +0.000 A 
ATOM      4  C9  UNK     0      -1.734   1.337  -0.518  0.00  0.00    +0.000 A 
ATOM      5  C10 UNK     0      -0.385   2.087   1.341  0.00  0.00    +0.000 A 
ATOM      6  C11 UNK     0      -1.079   2.365   0.161  0.00  0.00    +0.000 A 
ENDROOT
BRANCH   1   7
ATOM      7  C8  UNK     0      -0.834  -1.679   1.589  0.00  0.00    +0.000 C 
ATOM      8  O4  UNK     0      -1.884  -2.350   1.774  0.00  0.00    +0.000 OA
BRANCH   7   9
ATOM      9  C12 UNK     0       0.470  -2.324   1.870  0.00  0.00    +0.000 C 
ATOM     10  C14 UNK     0       1.643  -2.007   1.297  0.00  0.00    +0.000 C 
BRANCH  10  11
ATOM     11  C13 UNK     0       1.800  -1.083   0.159  0.00  0.00    +0.000 A 
ATOM     12  C16 UNK     0       1.096  -1.289  -1.040  0.00  0.00    +0.000 A 
ATOM     13  C18 UNK     0       1.247  -0.397  -2.106  0.00  0.00    +0.000 A 
ATOM     14  C19 UNK     0       2.116   0.691  -1.990  0.00  0.00    +0.000 A 
ATOM     15  C17 UNK     0       2.845   0.882  -0.813  0.00  0.00    +0.000 A 
ATOM     16  C15 UNK     0       2.697  -0.009   0.256  0.00  0.00    +0.000 A 
ENDBRANCH  10  11
ENDBRANCH   7   9
ENDBRANCH   1   7
BRANCH   3  17
ATOM     17  O2  UNK     0       0.324   0.581   3.062  0.00  0.00    +0.000 OA
ATOM     18  H30 UNK     0       0.312  -0.302   3.556  0.00  0.00    +0.000 HD
ENDBRANCH   3  17
BRANCH   2  19
ATOM     19  O1  UNK     0      -2.304  -1.042  -0.726  0.00  0.00    +0.000 OA
ATOM     20  C20 UNK     0      -2.997  -0.907  -1.962  0.00  0.00    +0.000 C 
ENDBRANCH   2  19
BRANCH   6  21
ATOM     21  O3  UNK     0      -1.130   3.662  -0.343  0.00  0.00    +0.000 OA
ATOM     22  H34 UNK     0      -0.665   4.431   0.126  0.00  0.00    +0.000 HD
ENDBRANCH   6  21
TORSDOF 6
