REMARK  Name = C:\Users\Maximilian\Desktop\Conformers\converted_pdb\conformers_pdb\Cardamonin_conf_2.pdb
REMARK  7 active torsions:
REMARK  status: ('A' for Active; 'I' for Inactive)
REMARK    1  A    between atoms: C5_1  and  C8_7
REMARK    2  A    between atoms: C6_2  and  O1_19
REMARK    3  A    between atoms: C7_3  and  O2_17
REMARK    4  A    between atoms: C11_6  and  O3_21
REMARK    5  A    between atoms: C8_7  and  C12_9
REMARK    6  A    between atoms: C14_10  and  C13_11
REMARK    7  A    between atoms: O1_19  and  C20_20
REMARK                            x       y       z     vdW  Elec       q    Type
REMARK                         _______ _______ _______ _____ _____    ______ ____
ROOT
ATOM      1  C5  UNK     0      -1.392   0.263  -0.241  0.00  0.00    +0.000 A 
ATOM      2  C6  UNK     0      -2.381  -0.327   0.578  0.00  0.00    +0.000 A 
ATOM      3  C7  UNK     0      -1.742   0.734  -1.526  0.00  0.00    +0.000 A 
ATOM      4  C9  UNK     0      -3.704  -0.427   0.103  0.00  0.00    +0.000 A 
ATOM      5  C10 UNK     0      -3.065   0.633  -1.973  0.00  0.00    +0.000 A 
ATOM      6  C11 UNK     0      -4.043   0.055  -1.165  0.00  0.00    +0.000 A 
ENDROOT
BRANCH   1   7
ATOM      7  C8  UNK     0       0.007   0.370   0.241  0.00  0.00    +0.000 C 
ATOM      8  O4  UNK     0       0.512  -0.585   0.893  0.00  0.00    +0.000 OA
BRANCH   7   9
ATOM      9  C12 UNK     0       0.780   1.615   0.035  0.00  0.00    +0.000 C 
ATOM     10  C14 UNK     0       2.119   1.705   0.027  0.00  0.00    +0.000 C 
BRANCH  10  11
ATOM     11  C13 UNK     0       3.051   0.558   0.032  0.00  0.00    +0.000 A 
ATOM     12  C16 UNK     0       2.873  -0.533  -0.839  0.00  0.00    +0.000 A 
ATOM     13  C18 UNK     0       3.794  -1.585  -0.848  0.00  0.00    +0.000 A 
ATOM     14  C19 UNK     0       4.909  -1.547  -0.005  0.00  0.00    +0.000 A 
ATOM     15  C17 UNK     0       5.108  -0.452   0.840  0.00  0.00    +0.000 A 
ATOM     16  C15 UNK     0       4.189   0.602   0.852  0.00  0.00    +0.000 A 
ENDBRANCH  10  11
ENDBRANCH   7   9
ENDBRANCH   1   7
BRANCH   3  17
ATOM     17  O2  UNK     0      -0.773   1.282  -2.367  0.00  0.00    +0.000 OA
ATOM     18  H30 UNK     0      -1.001   1.620  -3.295  0.00  0.00    +0.000 HD
ENDBRANCH   3  17
BRANCH   2  19
ATOM     19  O1  UNK     0      -2.025  -0.786   1.857  0.00  0.00    +0.000 OA
ATOM     20  C20 UNK     0      -2.922  -1.395   2.780  0.00  0.00    +0.000 C 
ENDBRANCH   2  19
BRANCH   6  21
ATOM     21  O3  UNK     0      -5.352  -0.039  -1.634  0.00  0.00    +0.000 OA
ATOM     22  H34 UNK     0      -6.088  -0.454  -1.074  0.00  0.00    +0.000 HD
ENDBRANCH   6  21
TORSDOF 6
