REMARK  Name = C:\Users\Maximilian\Desktop\Conformers\converted_pdb\conformers_pdb\Cardamonin_conf_10.pdb
REMARK  7 active torsions:
REMARK  status: ('A' for Active; 'I' for Inactive)
REMARK    1  A    between atoms: C5_1  and  C8_7
REMARK    2  A    between atoms: C6_2  and  O1_19
REMARK    3  A    between atoms: C7_3  and  O2_17
REMARK    4  A    between atoms: C11_6  and  O3_21
REMARK    5  A    between atoms: C8_7  and  C12_9
REMARK    6  A    between atoms: C14_10  and  C13_11
REMARK    7  A    between atoms: O1_19  and  C20_20
REMARK                            x       y       z     vdW  Elec       q    Type
REMARK                         _______ _______ _______ _____ _____    ______ ____
ROOT
ATOM      1  C5  UNK     0      -1.449  -0.788   0.364  0.00  0.00    +0.000 A 
ATOM      2  C6  UNK     0      -2.093   0.412  -0.004  0.00  0.00    +0.000 A 
ATOM      3  C7  UNK     0      -2.214  -1.948   0.601  0.00  0.00    +0.000 A 
ATOM      4  C9  UNK     0      -3.494   0.430  -0.148  0.00  0.00    +0.000 A 
ATOM      5  C10 UNK     0      -3.605  -1.913   0.445  0.00  0.00    +0.000 A 
ATOM      6  C11 UNK     0      -4.245  -0.730   0.072  0.00  0.00    +0.000 A 
ENDROOT
BRANCH   1   7
ATOM      7  C8  UNK     0       0.021  -0.807   0.516  0.00  0.00    +0.000 C 
ATOM      8  O4  UNK     0       0.561   0.016   1.303  0.00  0.00    +0.000 OA
BRANCH   7   9
ATOM      9  C12 UNK     0       0.841  -1.788  -0.232  0.00  0.00    +0.000 C 
ATOM     10  C14 UNK     0       2.156  -1.671  -0.478  0.00  0.00    +0.000 C 
BRANCH  10  11
ATOM     11  C13 UNK     0       2.970  -0.466  -0.213  0.00  0.00    +0.000 A 
ATOM     12  C16 UNK     0       4.230  -0.606   0.390  0.00  0.00    +0.000 A 
ATOM     13  C18 UNK     0       5.036   0.516   0.608  0.00  0.00    +0.000 A 
ATOM     14  C19 UNK     0       4.599   1.781   0.206  0.00  0.00    +0.000 A 
ATOM     15  C17 UNK     0       3.360   1.925  -0.423  0.00  0.00    +0.000 A 
ATOM     16  C15 UNK     0       2.552   0.806  -0.643  0.00  0.00    +0.000 A 
ENDBRANCH  10  11
ENDBRANCH   7   9
ENDBRANCH   1   7
BRANCH   3  17
ATOM     17  O2  UNK     0      -1.595  -3.128   1.015  0.00  0.00    +0.000 OA
ATOM     18  H30 UNK     0      -2.125  -3.972   1.197  0.00  0.00    +0.000 HD
ENDBRANCH   3  17
BRANCH   2  19
ATOM     19  O1  UNK     0      -1.312   1.559  -0.231  0.00  0.00    +0.000 OA
ATOM     20  C20 UNK     0      -1.829   2.828  -0.617  0.00  0.00    +0.000 C 
ENDBRANCH   2  19
BRANCH   6  21
ATOM     21  O3  UNK     0      -5.630  -0.717  -0.074  0.00  0.00    +0.000 OA
ATOM     22  H34 UNK     0      -6.127   0.124  -0.342  0.00  0.00    +0.000 HD
ENDBRANCH   6  21
TORSDOF 6
