REMARK  Name = C:\Users\Maximilian\Desktop\Conformers\converted_pdb\conformers_pdb\Chlorogenic Acid_conf_10.pdb
REMARK  11 active torsions:
REMARK  status: ('A' for Active; 'I' for Inactive)
REMARK    1  A    between atoms: C10_1  and  O2_26
REMARK    2  A    between atoms: C10_1  and  C16_28
REMARK    3  A    between atoms: C11_2  and  O1_7
REMARK    4  A    between atoms: C14_5  and  O3_22
REMARK    5  A    between atoms: C15_6  and  O4_24
REMARK    6  A    between atoms: O1_7  and  C17_8
REMARK    7  A    between atoms: C17_8  and  C18_10
REMARK    8  A    between atoms: C19_11  and  C20_12
REMARK    9  A    between atoms: C23_14  and  O8_18
REMARK   10  A    between atoms: C25_15  and  O9_20
REMARK   11  A    between atoms: C16_28  and  O5_30
REMARK                            x       y       z     vdW  Elec       q    Type
REMARK                         _______ _______ _______ _____ _____    ______ ____
ROOT
ATOM      1  C10 UNK     0       3.093   0.936  -0.165  0.00  0.00    +0.000 C 
ATOM      2  C11 UNK     0       2.431  -1.429   0.686  0.00  0.00    +0.000 C 
ATOM      3  C12 UNK     0       3.293  -0.177   0.917  0.00  0.00    +0.000 C 
ATOM      4  C13 UNK     0       2.511   0.360  -1.485  0.00  0.00    +0.000 C 
ATOM      5  C14 UNK     0       2.748  -2.085  -0.686  0.00  0.00    +0.000 C 
ATOM      6  C15 UNK     0       3.035  -1.050  -1.819  0.00  0.00    +0.000 C 
ENDROOT
BRANCH   5   7
ATOM      7  O3  UNK     0       3.833  -2.970  -0.555  0.00  0.00    +0.000 OA
ATOM      8  H34 UNK     0       3.494  -3.781  -0.095  0.00  0.00    +0.000 HD
ENDBRANCH   5   7
BRANCH   6   9
ATOM      9  O4  UNK     0       4.395  -1.005  -2.180  0.00  0.00    +0.000 OA
ATOM     10  H35 UNK     0       4.926  -0.813  -1.365  0.00  0.00    +0.000 HD
ENDBRANCH   6   9
BRANCH   1  11
ATOM     11  O2  UNK     0       4.342   1.517  -0.459  0.00  0.00    +0.000 OA
ATOM     12  H33 UNK     0       4.708   1.897   0.384  0.00  0.00    +0.000 HD
ENDBRANCH   1  11
BRANCH   1  13
ATOM     13  C16 UNK     0       2.159   2.028   0.323  0.00  0.00    +0.000 C 
ATOM     14  O6  UNK     0       1.211   1.765   1.113  0.00  0.00    +0.000 OA
BRANCH  13  15
ATOM     15  O5  UNK     0       2.306   3.326  -0.159  0.00  0.00    +0.000 OA
ATOM     16  H36 UNK     0       1.678   4.064   0.136  0.00  0.00    +0.000 HD
ENDBRANCH  13  15
ENDBRANCH   1  13
BRANCH   2  17
ATOM     17  O1  UNK     0       1.049  -1.075   0.766  0.00  0.00    +0.000 OA
BRANCH  17  18
ATOM     18  C17 UNK     0       0.021  -2.003   0.973  0.00  0.00    +0.000 C 
ATOM     19  O7  UNK     0       0.289  -3.211   1.218  0.00  0.00    +0.000 OA
BRANCH  18  20
ATOM     20  C18 UNK     0      -1.387  -1.580   0.916  0.00  0.00    +0.000 C 
ATOM     21  C19 UNK     0      -1.736  -0.338   0.556  0.00  0.00    +0.000 C 
BRANCH  21  22
ATOM     22  C20 UNK     0      -3.140   0.132   0.468  0.00  0.00    +0.000 A 
ATOM     23  C21 UNK     0      -3.420   1.271  -0.307  0.00  0.00    +0.000 A 
ATOM     24  C23 UNK     0      -4.730   1.760  -0.414  0.00  0.00    +0.000 A 
ATOM     25  C25 UNK     0      -5.772   1.118   0.265  0.00  0.00    +0.000 A 
ATOM     26  C24 UNK     0      -5.501  -0.008   1.052  0.00  0.00    +0.000 A 
ATOM     27  C22 UNK     0      -4.195  -0.496   1.159  0.00  0.00    +0.000 A 
BRANCH  24  28
ATOM     28  O8  UNK     0      -5.002   2.884  -1.192  0.00  0.00    +0.000 OA
ATOM     29  H42 UNK     0      -4.270   3.371  -1.695  0.00  0.00    +0.000 HD
ENDBRANCH  24  28
BRANCH  25  30
ATOM     30  O9  UNK     0      -7.073   1.607   0.156  0.00  0.00    +0.000 OA
ATOM     31  H43 UNK     0      -7.847   1.164   0.637  0.00  0.00    +0.000 HD
ENDBRANCH  25  30
ENDBRANCH  21  22
ENDBRANCH  18  20
ENDBRANCH  17  18
ENDBRANCH   2  17
TORSDOF 11
