REMARK  Name = C:\Users\Maximilian\Desktop\Conformers\converted_pdb\conformers_pdb\Chlorogenic Acid_conf_12.pdb
REMARK  11 active torsions:
REMARK  status: ('A' for Active; 'I' for Inactive)
REMARK    1  A    between atoms: C10_1  and  O2_26
REMARK    2  A    between atoms: C10_1  and  C16_28
REMARK    3  A    between atoms: C11_2  and  O1_7
REMARK    4  A    between atoms: C14_5  and  O3_22
REMARK    5  A    between atoms: C15_6  and  O4_24
REMARK    6  A    between atoms: O1_7  and  C17_8
REMARK    7  A    between atoms: C17_8  and  C18_10
REMARK    8  A    between atoms: C19_11  and  C20_12
REMARK    9  A    between atoms: C23_14  and  O8_18
REMARK   10  A    between atoms: C25_15  and  O9_20
REMARK   11  A    between atoms: C16_28  and  O5_30
REMARK                            x       y       z     vdW  Elec       q    Type
REMARK                         _______ _______ _______ _____ _____    ______ ____
ROOT
ATOM      1  C10 UNK     0      -3.742   0.711   0.576  0.00  0.00    +0.000 C 
ATOM      2  C11 UNK     0      -2.280   0.147  -1.524  0.00  0.00    +0.000 C 
ATOM      3  C12 UNK     0      -2.884   1.252  -0.616  0.00  0.00    +0.000 C 
ATOM      4  C13 UNK     0      -3.279  -0.706   0.973  0.00  0.00    +0.000 C 
ATOM      5  C14 UNK     0      -3.189  -1.091  -1.592  0.00  0.00    +0.000 C 
ATOM      6  C15 UNK     0      -3.401  -1.726  -0.188  0.00  0.00    +0.000 C 
ENDROOT
BRANCH   5   7
ATOM      7  O3  UNK     0      -4.416  -0.725  -2.176  0.00  0.00    +0.000 OA
ATOM      8  H34 UNK     0      -4.789  -1.538  -2.607  0.00  0.00    +0.000 HD
ENDBRANCH   5   7
BRANCH   6   9
ATOM      9  O4  UNK     0      -4.650  -2.370  -0.138  0.00  0.00    +0.000 OA
ATOM     10  H35 UNK     0      -4.606  -3.030   0.603  0.00  0.00    +0.000 HD
ENDBRANCH   6   9
BRANCH   1  11
ATOM     11  O2  UNK     0      -5.100   0.633   0.201  0.00  0.00    +0.000 OA
ATOM     12  H33 UNK     0      -5.406   1.543  -0.053  0.00  0.00    +0.000 HD
ENDBRANCH   1  11
BRANCH   1  13
ATOM     13  C16 UNK     0      -3.604   1.621   1.782  0.00  0.00    +0.000 C 
ATOM     14  O6  UNK     0      -2.467   1.852   2.277  0.00  0.00    +0.000 OA
BRANCH  13  15
ATOM     15  O5  UNK     0      -4.733   2.184   2.371  0.00  0.00    +0.000 OA
ATOM     16  H36 UNK     0      -4.651   2.785   3.183  0.00  0.00    +0.000 HD
ENDBRANCH  13  15
ENDBRANCH   1  13
BRANCH   2  17
ATOM     17  O1  UNK     0      -0.992  -0.249  -1.046  0.00  0.00    +0.000 OA
BRANCH  17  18
ATOM     18  C17 UNK     0       0.165   0.523  -1.201  0.00  0.00    +0.000 C 
ATOM     19  O7  UNK     0       0.128   1.612  -1.838  0.00  0.00    +0.000 OA
BRANCH  18  20
ATOM     20  C18 UNK     0       1.422   0.041  -0.608  0.00  0.00    +0.000 C 
ATOM     21  C19 UNK     0       2.576   0.712  -0.728  0.00  0.00    +0.000 C 
BRANCH  21  22
ATOM     22  C20 UNK     0       3.863   0.250  -0.151  0.00  0.00    +0.000 A 
ATOM     23  C21 UNK     0       5.059   0.762  -0.680  0.00  0.00    +0.000 A 
ATOM     24  C23 UNK     0       6.299   0.366  -0.165  0.00  0.00    +0.000 A 
ATOM     25  C25 UNK     0       6.353  -0.546   0.901  0.00  0.00    +0.000 A 
ATOM     26  C24 UNK     0       5.165  -1.049   1.445  0.00  0.00    +0.000 A 
ATOM     27  C22 UNK     0       3.928  -0.653   0.928  0.00  0.00    +0.000 A 
BRANCH  24  28
ATOM     28  O8  UNK     0       7.464   0.890  -0.725  0.00  0.00    +0.000 OA
ATOM     29  H42 UNK     0       8.385   0.635  -0.389  0.00  0.00    +0.000 HD
ENDBRANCH  24  28
BRANCH  25  30
ATOM     30  O9  UNK     0       7.585  -0.946   1.418  0.00  0.00    +0.000 OA
ATOM     31  H43 UNK     0       7.650  -1.602   2.188  0.00  0.00    +0.000 HD
ENDBRANCH  25  30
ENDBRANCH  21  22
ENDBRANCH  18  20
ENDBRANCH  17  18
ENDBRANCH   2  17
TORSDOF 11
