REMARK  11 active torsions:
REMARK  status: ('A' for Active; 'I' for Inactive)
REMARK    1  A    between atoms: O1_1  and  C17_17 
REMARK    2  A    between atoms: O1_1  and  C11_11 
REMARK    3  A    between atoms: O2_2  and  C10_10 
REMARK    4  A    between atoms: O3_3  and  C14_14 
REMARK    5  A    between atoms: O4_4  and  C15_15 
REMARK    6  A    between atoms: O5_5  and  C16_16 
REMARK    7  A    between atoms: O8_8  and  C23_23 
REMARK    8  A    between atoms: O9_9  and  C25_25 
REMARK    9  A    between atoms: C10_10  and  C16_16 
REMARK   10  A    between atoms: C17_17  and  C18_18 
REMARK   11  A    between atoms: C19_19  and  C20_20 
ROOT
HETATM    1  C10         0      11.075   1.801   0.418  1.00  0.00     0.147 C 
HETATM    2  C11         0       9.581  -0.093   0.167  1.00  0.00     0.166 C 
HETATM    3  C12         0       9.883   1.158  -0.565  1.00  0.00     0.084 C 
HETATM    4  C13         0      12.107   0.723   1.072  1.00  0.00     0.083 C 
HETATM    5  C14         0      10.894  -1.015  -0.085  1.00  0.00     0.176 C 
HETATM    6  C15         0      12.267  -0.194  -0.030  1.00  0.00     0.152 C 
ENDROOT
BRANCH   2   7
HETATM    7  O1          0       8.362  -0.916  -0.167  1.00  0.00    -0.310 OA
BRANCH   7   8
HETATM    8  C17         0       7.067  -0.286   0.023  1.00  0.00     0.283 C 
HETATM    9  O7          0       6.996   0.892   0.393  1.00  0.00    -0.260 OA
BRANCH   8  10
HETATM   10  C18         0       5.772  -1.093  -0.146  1.00  0.00     0.083 C 
HETATM   11  C19         0       4.567  -0.507   0.003  1.00  0.00     0.017 C 
BRANCH  11  12
HETATM   12  C20         0       3.227  -1.241  -0.071  1.00  0.00    -0.033 A 
HETATM   13  C21         0       2.087  -0.540  -0.005  1.00  0.00     0.050 A 
HETATM   14  C23         0       0.769  -1.223  -0.037  1.00  0.00     0.099 A 
HETATM   15  C25         0       0.708  -2.548  -0.128  1.00  0.00     0.098 A 
HETATM   16  C24         0       1.956  -3.331  -0.199  1.00  0.00     0.040 A 
HETATM   17  C22         0       3.147  -2.716  -0.179  1.00  0.00     0.014 A 
BRANCH  14  18
HETATM   18  O8          0      -0.417  -0.487   0.026  1.00  0.00    -0.358 OA
HETATM   19  H42         0      -0.213   0.476   0.087  1.00  0.00     0.217 HD
ENDBRANCH  14  18
BRANCH  15  20
HETATM   20  O9          0      -0.547  -3.182  -0.146  1.00  0.00    -0.358 OA
HETATM   21  H43         0      -0.435  -4.163  -0.208  1.00  0.00     0.217 HD
ENDBRANCH  15  20
ENDBRANCH  11  12
ENDBRANCH   8  10
ENDBRANCH   7   8
ENDBRANCH   2   7
BRANCH   5  22
HETATM   22  O3          0      10.820  -2.010   0.929  1.00  0.00    -0.390 OA
HETATM   23  H34         0      11.596  -2.621   0.844  1.00  0.00     0.210 HD
ENDBRANCH   5  22
BRANCH   6  24
HETATM   24  O4          0      13.373  -1.096   0.061  1.00  0.00    -0.393 OA
HETATM   25  H35         0      14.218  -0.576   0.119  1.00  0.00     0.210 HD
ENDBRANCH   6  24
BRANCH   1  26
HETATM   26  O2          0      10.477   2.451   1.536  1.00  0.00    -0.379 OA
HETATM   27  H33         0       9.876   3.165   1.214  1.00  0.00     0.211 HD
ENDBRANCH   1  26
BRANCH   1  28
HETATM   28  C16         0      11.852   2.864  -0.335  1.00  0.00     0.176 C 
HETATM   29  O6          0      11.315   3.520  -1.232  1.00  0.00    -0.648 OA
BRANCH  28  30
HETATM   30  O5          0      13.196   3.091  -0.004  1.00  0.00    -0.774 OA
HETATM   31  H36         0      13.572   3.804  -0.579  1.00  0.00     0.167 HD
ENDBRANCH  28  30
ENDBRANCH   1  28
TORSDOF 11
