REMARK  Name = C:\Users\Maximilian\Desktop\Conformers\converted_pdb\conformers_pdb\Chlorogenic Acid_conf_35.pdb
REMARK  11 active torsions:
REMARK  status: ('A' for Active; 'I' for Inactive)
REMARK    1  A    between atoms: C10_1  and  O2_26
REMARK    2  A    between atoms: C10_1  and  C16_28
REMARK    3  A    between atoms: C11_2  and  O1_7
REMARK    4  A    between atoms: C14_5  and  O3_22
REMARK    5  A    between atoms: C15_6  and  O4_24
REMARK    6  A    between atoms: O1_7  and  C17_8
REMARK    7  A    between atoms: C17_8  and  C18_10
REMARK    8  A    between atoms: C19_11  and  C20_12
REMARK    9  A    between atoms: C23_14  and  O8_18
REMARK   10  A    between atoms: C25_15  and  O9_20
REMARK   11  A    between atoms: C16_28  and  O5_30
REMARK                            x       y       z     vdW  Elec       q    Type
REMARK                         _______ _______ _______ _____ _____    ______ ____
ROOT
ATOM      1  C10 UNK     0      -3.827   0.338  -0.759  0.00  0.00    +0.000 C 
ATOM      2  C11 UNK     0      -1.321  -0.440  -0.866  0.00  0.00    +0.000 C 
ATOM      3  C12 UNK     0      -2.485   0.290  -1.570  0.00  0.00    +0.000 C 
ATOM      4  C13 UNK     0      -3.611  -0.009   0.733  0.00  0.00    +0.000 C 
ATOM      5  C14 UNK     0      -1.800  -1.694  -0.098  0.00  0.00    +0.000 C 
ATOM      6  C15 UNK     0      -2.880  -1.357   0.970  0.00  0.00    +0.000 C 
ENDROOT
BRANCH   5   7
ATOM      7  O3  UNK     0      -2.212  -2.708  -0.984  0.00  0.00    +0.000 OA
ATOM      8  H34 UNK     0      -2.970  -2.366  -1.522  0.00  0.00    +0.000 HD
ENDBRANCH   5   7
BRANCH   6   9
ATOM      9  O4  UNK     0      -3.785  -2.420   1.150  0.00  0.00    +0.000 OA
ATOM     10  H35 UNK     0      -4.406  -2.431   0.379  0.00  0.00    +0.000 HD
ENDBRANCH   6   9
BRANCH   1  11
ATOM     11  O2  UNK     0      -4.742  -0.592  -1.292  0.00  0.00    +0.000 OA
ATOM     12  H33 UNK     0      -4.912  -0.355  -2.242  0.00  0.00    +0.000 HD
ENDBRANCH   1  11
BRANCH   1  13
ATOM     13  C16 UNK     0      -4.436   1.727  -0.830  0.00  0.00    +0.000 C 
ATOM     14  O6  UNK     0      -3.760   2.736  -0.490  0.00  0.00    +0.000 OA
BRANCH  13  15
ATOM     15  O5  UNK     0      -5.760   1.895  -1.230  0.00  0.00    +0.000 OA
ATOM     16  H36 UNK     0      -6.180   2.817  -1.266  0.00  0.00    +0.000 HD
ENDBRANCH  13  15
ENDBRANCH   1  13
BRANCH   2  17
ATOM     17  O1  UNK     0      -0.677   0.471   0.029  0.00  0.00    +0.000 OA
BRANCH  17  18
ATOM     18  C17 UNK     0       0.618   0.289   0.527  0.00  0.00    +0.000 C 
ATOM     19  O7  UNK     0       1.305  -0.708   0.170  0.00  0.00    +0.000 OA
BRANCH  18  20
ATOM     20  C18 UNK     0       1.133   1.254   1.517  0.00  0.00    +0.000 C 
ATOM     21  C19 UNK     0       2.421   1.412   1.859  0.00  0.00    +0.000 C 
BRANCH  21  22
ATOM     22  C20 UNK     0       3.571   0.781   1.179  0.00  0.00    +0.000 A 
ATOM     23  C21 UNK     0       3.717   0.845  -0.217  0.00  0.00    +0.000 A 
ATOM     24  C23 UNK     0       4.836   0.283  -0.842  0.00  0.00    +0.000 A 
ATOM     25  C25 UNK     0       5.834  -0.331  -0.066  0.00  0.00    +0.000 A 
ATOM     26  C24 UNK     0       5.705  -0.367   1.329  0.00  0.00    +0.000 A 
ATOM     27  C22 UNK     0       4.586   0.195   1.949  0.00  0.00    +0.000 A 
BRANCH  24  28
ATOM     28  O8  UNK     0       4.941   0.349  -2.231  0.00  0.00    +0.000 OA
ATOM     29  H42 UNK     0       5.732  -0.041  -2.730  0.00  0.00    +0.000 HD
ENDBRANCH  24  28
BRANCH  25  30
ATOM     30  O9  UNK     0       6.950  -0.896  -0.682  0.00  0.00    +0.000 OA
ATOM     31  H43 UNK     0       7.684  -1.342  -0.144  0.00  0.00    +0.000 HD
ENDBRANCH  25  30
ENDBRANCH  21  22
ENDBRANCH  18  20
ENDBRANCH  17  18
ENDBRANCH   2  17
TORSDOF 11
