REMARK  Name = C:\Users\Maximilian\Desktop\Conformers\converted_pdb\conformers_pdb\Chlorogenic Acid_conf_21.pdb
REMARK  11 active torsions:
REMARK  status: ('A' for Active; 'I' for Inactive)
REMARK    1  A    between atoms: C10_1  and  O2_26
REMARK    2  A    between atoms: C10_1  and  C16_28
REMARK    3  A    between atoms: C11_2  and  O1_7
REMARK    4  A    between atoms: C14_5  and  O3_22
REMARK    5  A    between atoms: C15_6  and  O4_24
REMARK    6  A    between atoms: O1_7  and  C17_8
REMARK    7  A    between atoms: C17_8  and  C18_10
REMARK    8  A    between atoms: C19_11  and  C20_12
REMARK    9  A    between atoms: C23_14  and  O8_18
REMARK   10  A    between atoms: C25_15  and  O9_20
REMARK   11  A    between atoms: C16_28  and  O5_30
REMARK                            x       y       z     vdW  Elec       q    Type
REMARK                         _______ _______ _______ _____ _____    ______ ____
ROOT
ATOM      1  C10 UNK     0      -4.125  -0.810   0.448  0.00  0.00    +0.000 C 
ATOM      2  C11 UNK     0      -2.007   0.616   0.570  0.00  0.00    +0.000 C 
ATOM      3  C12 UNK     0      -2.686  -0.582  -0.114  0.00  0.00    +0.000 C 
ATOM      4  C13 UNK     0      -4.824   0.538   0.799  0.00  0.00    +0.000 C 
ATOM      5  C14 UNK     0      -2.759   1.935   0.257  0.00  0.00    +0.000 C 
ATOM      6  C15 UNK     0      -4.275   1.716  -0.020  0.00  0.00    +0.000 C 
ENDROOT
BRANCH   5   7
ATOM      7  O3  UNK     0      -2.578   2.818   1.337  0.00  0.00    +0.000 OA
ATOM      8  H34 UNK     0      -2.607   3.741   0.970  0.00  0.00    +0.000 HD
ENDBRANCH   5   7
BRANCH   6   9
ATOM      9  O4  UNK     0      -5.014   2.873   0.277  0.00  0.00    +0.000 OA
ATOM     10  H35 UNK     0      -4.811   3.532  -0.437  0.00  0.00    +0.000 HD
ENDBRANCH   6   9
BRANCH   1  11
ATOM     11  O2  UNK     0      -4.048  -1.565   1.638  0.00  0.00    +0.000 OA
ATOM     12  H33 UNK     0      -3.612  -2.433   1.431  0.00  0.00    +0.000 HD
ENDBRANCH   1  11
BRANCH   1  13
ATOM     13  C16 UNK     0      -4.963  -1.559  -0.572  0.00  0.00    +0.000 C 
ATOM     14  O6  UNK     0      -5.119  -1.091  -1.733  0.00  0.00    +0.000 OA
BRANCH  13  15
ATOM     15  O5  UNK     0      -5.595  -2.750  -0.225  0.00  0.00    +0.000 OA
ATOM     16  H36 UNK     0      -6.166  -3.251  -0.896  0.00  0.00    +0.000 HD
ENDBRANCH  13  15
ENDBRANCH   1  13
BRANCH   2  17
ATOM     17  O1  UNK     0      -0.652   0.736   0.131  0.00  0.00    +0.000 OA
BRANCH  17  18
ATOM     18  C17 UNK     0       0.380  -0.103   0.565  0.00  0.00    +0.000 C 
ATOM     19  O7  UNK     0       0.159  -0.998   1.429  0.00  0.00    +0.000 OA
BRANCH  18  20
ATOM     20  C18 UNK     0       1.727   0.081   0.002  0.00  0.00    +0.000 C 
ATOM     21  C19 UNK     0       2.773  -0.666   0.383  0.00  0.00    +0.000 C 
BRANCH  21  22
ATOM     22  C20 UNK     0       4.146  -0.500  -0.156  0.00  0.00    +0.000 A 
ATOM     23  C21 UNK     0       5.225  -1.001   0.589  0.00  0.00    +0.000 A 
ATOM     24  C23 UNK     0       6.542  -0.881   0.126  0.00  0.00    +0.000 A 
ATOM     25  C25 UNK     0       6.789  -0.255  -1.118  0.00  0.00    +0.000 A 
ATOM     26  C24 UNK     0       5.712   0.228  -1.868  0.00  0.00    +0.000 A 
ATOM     27  C22 UNK     0       4.402   0.106  -1.399  0.00  0.00    +0.000 A 
BRANCH  24  28
ATOM     28  O8  UNK     0       7.564  -1.396   0.927  0.00  0.00    +0.000 OA
ATOM     29  H42 UNK     0       8.543  -1.363   0.683  0.00  0.00    +0.000 HD
ENDBRANCH  24  28
BRANCH  25  30
ATOM     30  O9  UNK     0       8.073  -0.098  -1.643  0.00  0.00    +0.000 OA
ATOM     31  H43 UNK     0       8.914  -0.409  -1.180  0.00  0.00    +0.000 HD
ENDBRANCH  25  30
ENDBRANCH  21  22
ENDBRANCH  18  20
ENDBRANCH  17  18
ENDBRANCH   2  17
TORSDOF 11
