REMARK  Name = C:\Users\Maximilian\Desktop\Conformers\converted_pdb\conformers_pdb\Chlorogenic Acid_conf_3.pdb
REMARK  11 active torsions:
REMARK  status: ('A' for Active; 'I' for Inactive)
REMARK    1  A    between atoms: C10_1  and  O2_26
REMARK    2  A    between atoms: C10_1  and  C16_28
REMARK    3  A    between atoms: C11_2  and  O1_7
REMARK    4  A    between atoms: C14_5  and  O3_22
REMARK    5  A    between atoms: C15_6  and  O4_24
REMARK    6  A    between atoms: O1_7  and  C17_8
REMARK    7  A    between atoms: C17_8  and  C18_10
REMARK    8  A    between atoms: C19_11  and  C20_12
REMARK    9  A    between atoms: C23_14  and  O8_18
REMARK   10  A    between atoms: C25_15  and  O9_20
REMARK   11  A    between atoms: C16_28  and  O5_30
REMARK                            x       y       z     vdW  Elec       q    Type
REMARK                         _______ _______ _______ _____ _____    ______ ____
ROOT
ATOM      1  C10 UNK     0      -4.265  -1.410   0.078  0.00  0.00    +0.000 C 
ATOM      2  C11 UNK     0      -1.984  -0.311   0.431  0.00  0.00    +0.000 C 
ATOM      3  C12 UNK     0      -2.792  -1.340  -0.378  0.00  0.00    +0.000 C 
ATOM      4  C13 UNK     0      -4.903   0.003  -0.009  0.00  0.00    +0.000 C 
ATOM      5  C14 UNK     0      -2.631   1.087   0.323  0.00  0.00    +0.000 C 
ATOM      6  C15 UNK     0      -4.105   1.059   0.780  0.00  0.00    +0.000 C 
ENDROOT
BRANCH   5   7
ATOM      7  O3  UNK     0      -1.910   2.004   1.106  0.00  0.00    +0.000 OA
ATOM      8  H34 UNK     0      -2.167   2.911   0.795  0.00  0.00    +0.000 HD
ENDBRANCH   5   7
BRANCH   6   9
ATOM      9  O4  UNK     0      -4.174   0.805   2.161  0.00  0.00    +0.000 OA
ATOM     10  H35 UNK     0      -5.090   1.053   2.452  0.00  0.00    +0.000 HD
ENDBRANCH   6   9
BRANCH   1  11
ATOM     11  O2  UNK     0      -4.301  -1.880   1.407  0.00  0.00    +0.000 OA
ATOM     12  H33 UNK     0      -5.250  -1.895   1.700  0.00  0.00    +0.000 HD
ENDBRANCH   1  11
BRANCH   1  13
ATOM     13  C16 UNK     0      -5.004  -2.381  -0.818  0.00  0.00    +0.000 C 
ATOM     14  O6  UNK     0      -5.313  -2.055  -1.997  0.00  0.00    +0.000 OA
BRANCH  13  15
ATOM     15  O5  UNK     0      -5.295  -3.665  -0.365  0.00  0.00    +0.000 OA
ATOM     16  H36 UNK     0      -5.771  -4.331  -0.962  0.00  0.00    +0.000 HD
ENDBRANCH  13  15
ENDBRANCH   1  13
BRANCH   2  17
ATOM     17  O1  UNK     0      -0.653  -0.278  -0.089  0.00  0.00    +0.000 OA
BRANCH  17  18
ATOM     18  C17 UNK     0       0.466   0.114   0.655  0.00  0.00    +0.000 C 
ATOM     19  O7  UNK     0       0.357   0.396   1.880  0.00  0.00    +0.000 OA
BRANCH  18  20
ATOM     20  C18 UNK     0       1.774   0.181  -0.018  0.00  0.00    +0.000 C 
ATOM     21  C19 UNK     0       2.897   0.524   0.630  0.00  0.00    +0.000 C 
BRANCH  21  22
ATOM     22  C20 UNK     0       4.232   0.591  -0.014  0.00  0.00    +0.000 A 
ATOM     23  C21 UNK     0       5.375   0.528   0.801  0.00  0.00    +0.000 A 
ATOM     24  C23 UNK     0       6.657   0.597   0.245  0.00  0.00    +0.000 A 
ATOM     25  C25 UNK     0       6.810   0.742  -1.144  0.00  0.00    +0.000 A 
ATOM     26  C24 UNK     0       5.675   0.822  -1.961  0.00  0.00    +0.000 A 
ATOM     27  C22 UNK     0       4.396   0.752  -1.404  0.00  0.00    +0.000 A 
BRANCH  24  28
ATOM     28  O8  UNK     0       7.766   0.520   1.087  0.00  0.00    +0.000 OA
ATOM     29  H42 UNK     0       8.714   0.565   0.734  0.00  0.00    +0.000 HD
ENDBRANCH  24  28
BRANCH  25  30
ATOM     30  O9  UNK     0       8.084   0.810  -1.705  0.00  0.00    +0.000 OA
ATOM     31  H43 UNK     0       8.220   0.915  -2.703  0.00  0.00    +0.000 HD
ENDBRANCH  25  30
ENDBRANCH  21  22
ENDBRANCH  18  20
ENDBRANCH  17  18
ENDBRANCH   2  17
TORSDOF 11
