REMARK  Name = C:\Users\Maximilian\Desktop\Conformers\converted_pdb\conformers_pdb\Chlorogenic Acid_conf_38.pdb
REMARK  11 active torsions:
REMARK  status: ('A' for Active; 'I' for Inactive)
REMARK    1  A    between atoms: C10_1  and  O2_26
REMARK    2  A    between atoms: C10_1  and  C16_28
REMARK    3  A    between atoms: C11_2  and  O1_7
REMARK    4  A    between atoms: C14_5  and  O3_22
REMARK    5  A    between atoms: C15_6  and  O4_24
REMARK    6  A    between atoms: O1_7  and  C17_8
REMARK    7  A    between atoms: C17_8  and  C18_10
REMARK    8  A    between atoms: C19_11  and  C20_12
REMARK    9  A    between atoms: C23_14  and  O8_18
REMARK   10  A    between atoms: C25_15  and  O9_20
REMARK   11  A    between atoms: C16_28  and  O5_30
REMARK                            x       y       z     vdW  Elec       q    Type
REMARK                         _______ _______ _______ _____ _____    ______ ____
ROOT
ATOM      1  C10 UNK     0      -3.636  -0.919   1.237  0.00  0.00    +0.000 C 
ATOM      2  C11 UNK     0      -2.379  -0.924  -1.035  0.00  0.00    +0.000 C 
ATOM      3  C12 UNK     0      -3.643  -0.506  -0.267  0.00  0.00    +0.000 C 
ATOM      4  C13 UNK     0      -2.651  -2.098   1.511  0.00  0.00    +0.000 C 
ATOM      5  C14 UNK     0      -2.162  -2.465  -0.989  0.00  0.00    +0.000 C 
ATOM      6  C15 UNK     0      -2.596  -3.117   0.359  0.00  0.00    +0.000 C 
ENDROOT
BRANCH   5   7
ATOM      7  O3  UNK     0      -2.839  -3.078  -2.059  0.00  0.00    +0.000 OA
ATOM      8  H34 UNK     0      -2.316  -2.887  -2.882  0.00  0.00    +0.000 HD
ENDBRANCH   5   7
BRANCH   6   9
ATOM      9  O4  UNK     0      -3.810  -3.825   0.260  0.00  0.00    +0.000 OA
ATOM     10  H35 UNK     0      -4.492  -3.221  -0.129  0.00  0.00    +0.000 HD
ENDBRANCH   6   9
BRANCH   1  11
ATOM     11  O2  UNK     0      -4.947  -1.322   1.571  0.00  0.00    +0.000 OA
ATOM     12  H33 UNK     0      -4.964  -1.566   2.534  0.00  0.00    +0.000 HD
ENDBRANCH   1  11
BRANCH   1  13
ATOM     13  C16 UNK     0      -3.249   0.283   2.082  0.00  0.00    +0.000 C 
ATOM     14  O6  UNK     0      -4.128   0.917   2.727  0.00  0.00    +0.000 OA
BRANCH  13  15
ATOM     15  O5  UNK     0      -1.931   0.732   2.108  0.00  0.00    +0.000 OA
ATOM     16  H36 UNK     0      -1.667   1.544   2.652  0.00  0.00    +0.000 HD
ENDBRANCH  13  15
ENDBRANCH   1  13
BRANCH   2  17
ATOM     17  O1  UNK     0      -1.252  -0.236  -0.490  0.00  0.00    +0.000 OA
BRANCH  17  18
ATOM     18  C17 UNK     0      -0.031  -0.093  -1.157  0.00  0.00    +0.000 C 
ATOM     19  O7  UNK     0       0.124  -0.561  -2.319  0.00  0.00    +0.000 OA
BRANCH  18  20
ATOM     20  C18 UNK     0       1.064   0.620  -0.480  0.00  0.00    +0.000 C 
ATOM     21  C19 UNK     0       2.281   0.753  -1.028  0.00  0.00    +0.000 C 
BRANCH  21  22
ATOM     22  C20 UNK     0       3.406   1.453  -0.363  0.00  0.00    +0.000 A 
ATOM     23  C21 UNK     0       3.203   2.450   0.612  0.00  0.00    +0.000 A 
ATOM     24  C23 UNK     0       4.292   3.098   1.208  0.00  0.00    +0.000 A 
ATOM     25  C25 UNK     0       5.600   2.757   0.830  0.00  0.00    +0.000 A 
ATOM     26  C24 UNK     0       5.807   1.779  -0.151  0.00  0.00    +0.000 A 
ATOM     27  C22 UNK     0       4.718   1.137  -0.746  0.00  0.00    +0.000 A 
BRANCH  24  28
ATOM     28  O8  UNK     0       4.052   4.076   2.173  0.00  0.00    +0.000 OA
ATOM     29  H42 UNK     0       4.805   4.576   2.631  0.00  0.00    +0.000 HD
ENDBRANCH  24  28
BRANCH  25  30
ATOM     30  O9  UNK     0       6.689   3.390   1.429  0.00  0.00    +0.000 OA
ATOM     31  H43 UNK     0       7.642   3.145   1.190  0.00  0.00    +0.000 HD
ENDBRANCH  25  30
ENDBRANCH  21  22
ENDBRANCH  18  20
ENDBRANCH  17  18
ENDBRANCH   2  17
TORSDOF 11
