REMARK  Name = C:\Users\Maximilian\Desktop\Conformers\converted_pdb\conformers_pdb\Chlorogenic Acid_conf_8.pdb
REMARK  11 active torsions:
REMARK  status: ('A' for Active; 'I' for Inactive)
REMARK    1  A    between atoms: C10_1  and  O2_26
REMARK    2  A    between atoms: C10_1  and  C16_28
REMARK    3  A    between atoms: C11_2  and  O1_7
REMARK    4  A    between atoms: C14_5  and  O3_22
REMARK    5  A    between atoms: C15_6  and  O4_24
REMARK    6  A    between atoms: O1_7  and  C17_8
REMARK    7  A    between atoms: C17_8  and  C18_10
REMARK    8  A    between atoms: C19_11  and  C20_12
REMARK    9  A    between atoms: C23_14  and  O8_18
REMARK   10  A    between atoms: C25_15  and  O9_20
REMARK   11  A    between atoms: C16_28  and  O5_30
REMARK                            x       y       z     vdW  Elec       q    Type
REMARK                         _______ _______ _______ _____ _____    ______ ____
ROOT
ATOM      1  C10 UNK     0      -4.125  -0.390  -0.864  0.00  0.00    +0.000 C 
ATOM      2  C11 UNK     0      -1.894  -0.653   0.380  0.00  0.00    +0.000 C 
ATOM      3  C12 UNK     0      -2.584  -0.159  -0.905  0.00  0.00    +0.000 C 
ATOM      4  C13 UNK     0      -4.696  -0.276   0.585  0.00  0.00    +0.000 C 
ATOM      5  C14 UNK     0      -2.401   0.119   1.628  0.00  0.00    +0.000 C 
ATOM      6  C15 UNK     0      -3.851   0.655   1.468  0.00  0.00    +0.000 C 
ENDROOT
BRANCH   5   7
ATOM      7  O3  UNK     0      -2.325  -0.718   2.755  0.00  0.00    +0.000 OA
ATOM      8  H34 UNK     0      -1.363  -0.802   2.986  0.00  0.00    +0.000 HD
ENDBRANCH   5   7
BRANCH   6   9
ATOM      9  O4  UNK     0      -4.472   0.800   2.719  0.00  0.00    +0.000 OA
ATOM     10  H35 UNK     0      -4.037   1.573   3.166  0.00  0.00    +0.000 HD
ENDBRANCH   6   9
BRANCH   1  11
ATOM     11  O2  UNK     0      -4.429  -1.668  -1.375  0.00  0.00    +0.000 OA
ATOM     12  H33 UNK     0      -3.932  -2.344  -0.844  0.00  0.00    +0.000 HD
ENDBRANCH   1  11
BRANCH   1  13
ATOM     13  C16 UNK     0      -4.784   0.628  -1.768  0.00  0.00    +0.000 C 
ATOM     14  O6  UNK     0      -4.931   1.822  -1.389  0.00  0.00    +0.000 OA
BRANCH  13  15
ATOM     15  O5  UNK     0      -5.182   0.265  -3.052  0.00  0.00    +0.000 OA
ATOM     16  H36 UNK     0      -5.607   0.941  -3.676  0.00  0.00    +0.000 HD
ENDBRANCH  13  15
ENDBRANCH   1  13
BRANCH   2  17
ATOM     17  O1  UNK     0      -0.479  -0.485   0.274  0.00  0.00    +0.000 OA
BRANCH  17  18
ATOM     18  C17 UNK     0       0.346  -1.315  -0.496  0.00  0.00    +0.000 C 
ATOM     19  O7  UNK     0      -0.135  -2.308  -1.106  0.00  0.00    +0.000 OA
BRANCH  18  20
ATOM     20  C18 UNK     0       1.789  -1.045  -0.594  0.00  0.00    +0.000 C 
ATOM     21  C19 UNK     0       2.354   0.007   0.013  0.00  0.00    +0.000 C 
BRANCH  21  22
ATOM     22  C20 UNK     0       3.801   0.326  -0.069  0.00  0.00    +0.000 A 
ATOM     23  C21 UNK     0       4.776  -0.645  -0.376  0.00  0.00    +0.000 A 
ATOM     24  C23 UNK     0       6.135  -0.299  -0.431  0.00  0.00    +0.000 A 
ATOM     25  C25 UNK     0       6.531   1.022  -0.170  0.00  0.00    +0.000 A 
ATOM     26  C24 UNK     0       5.568   1.984   0.150  0.00  0.00    +0.000 A 
ATOM     27  C22 UNK     0       4.216   1.639   0.206  0.00  0.00    +0.000 A 
BRANCH  24  28
ATOM     28  O8  UNK     0       7.091  -1.266  -0.739  0.00  0.00    +0.000 OA
ATOM     29  H42 UNK     0       6.833  -2.227  -0.931  0.00  0.00    +0.000 HD
ENDBRANCH  24  28
BRANCH  25  30
ATOM     30  O9  UNK     0       7.873   1.397  -0.221  0.00  0.00    +0.000 OA
ATOM     31  H43 UNK     0       8.608   0.738  -0.448  0.00  0.00    +0.000 HD
ENDBRANCH  25  30
ENDBRANCH  21  22
ENDBRANCH  18  20
ENDBRANCH  17  18
ENDBRANCH   2  17
TORSDOF 11
