REMARK  Name = C:\Users\Maximilian\Desktop\Conformers\converted_pdb\conformers_pdb\Chlorogenic Acid_conf_11.pdb
REMARK  11 active torsions:
REMARK  status: ('A' for Active; 'I' for Inactive)
REMARK    1  A    between atoms: C10_1  and  O2_26
REMARK    2  A    between atoms: C10_1  and  C16_28
REMARK    3  A    between atoms: C11_2  and  O1_7
REMARK    4  A    between atoms: C14_5  and  O3_22
REMARK    5  A    between atoms: C15_6  and  O4_24
REMARK    6  A    between atoms: O1_7  and  C17_8
REMARK    7  A    between atoms: C17_8  and  C18_10
REMARK    8  A    between atoms: C19_11  and  C20_12
REMARK    9  A    between atoms: C23_14  and  O8_18
REMARK   10  A    between atoms: C25_15  and  O9_20
REMARK   11  A    between atoms: C16_28  and  O5_30
REMARK                            x       y       z     vdW  Elec       q    Type
REMARK                         _______ _______ _______ _____ _____    ______ ____
ROOT
ATOM      1  C10 UNK     0      -4.149   0.727  -0.264  0.00  0.00    +0.000 C 
ATOM      2  C11 UNK     0      -1.842  -0.267  -0.793  0.00  0.00    +0.000 C 
ATOM      3  C12 UNK     0      -2.613   0.813  -0.013  0.00  0.00    +0.000 C 
ATOM      4  C13 UNK     0      -4.624  -0.740  -0.511  0.00  0.00    +0.000 C 
ATOM      5  C14 UNK     0      -2.256  -1.689  -0.328  0.00  0.00    +0.000 C 
ATOM      6  C15 UNK     0      -3.724  -1.772   0.188  0.00  0.00    +0.000 C 
ENDROOT
BRANCH   5   7
ATOM      7  O3  UNK     0      -2.015  -2.621  -1.354  0.00  0.00    +0.000 OA
ATOM      8  H34 UNK     0      -2.644  -2.419  -2.095  0.00  0.00    +0.000 HD
ENDBRANCH   5   7
BRANCH   6   9
ATOM      9  O4  UNK     0      -4.252  -3.058  -0.006  0.00  0.00    +0.000 OA
ATOM     10  H35 UNK     0      -3.792  -3.656   0.640  0.00  0.00    +0.000 HD
ENDBRANCH   6   9
BRANCH   1  11
ATOM     11  O2  UNK     0      -4.495   1.512  -1.384  0.00  0.00    +0.000 OA
ATOM     12  H33 UNK     0      -3.965   1.197  -2.162  0.00  0.00    +0.000 HD
ENDBRANCH   1  11
BRANCH   1  13
ATOM     13  C16 UNK     0      -4.858   1.308   0.941  0.00  0.00    +0.000 C 
ATOM     14  O6  UNK     0      -5.227   2.514   0.938  0.00  0.00    +0.000 OA
BRANCH  13  15
ATOM     15  O5  UNK     0      -5.050   0.538   2.085  0.00  0.00    +0.000 OA
ATOM     16  H36 UNK     0      -5.503   0.927   2.904  0.00  0.00    +0.000 HD
ENDBRANCH  13  15
ENDBRANCH   1  13
BRANCH   2  17
ATOM     17  O1  UNK     0      -0.436  -0.106  -0.599  0.00  0.00    +0.000 OA
BRANCH  17  18
ATOM     18  C17 UNK     0       0.325   0.894  -1.219  0.00  0.00    +0.000 C 
ATOM     19  O7  UNK     0      -0.209   1.686  -2.042  0.00  0.00    +0.000 OA
BRANCH  18  20
ATOM     20  C18 UNK     0       1.760   1.029  -0.924  0.00  0.00    +0.000 C 
ATOM     21  C19 UNK     0       2.378   0.233  -0.041  0.00  0.00    +0.000 C 
BRANCH  21  22
ATOM     22  C20 UNK     0       3.819   0.340   0.298  0.00  0.00    +0.000 A 
ATOM     23  C21 UNK     0       4.268  -0.215   1.508  0.00  0.00    +0.000 A 
ATOM     24  C23 UNK     0       5.618  -0.150   1.870  0.00  0.00    +0.000 A 
ATOM     25  C25 UNK     0       6.543   0.467   1.012  0.00  0.00    +0.000 A 
ATOM     26  C24 UNK     0       6.106   1.009  -0.203  0.00  0.00    +0.000 A 
ATOM     27  C22 UNK     0       4.757   0.944  -0.563  0.00  0.00    +0.000 A 
BRANCH  24  28
ATOM     28  O8  UNK     0       6.022  -0.705   3.084  0.00  0.00    +0.000 OA
ATOM     29  H42 UNK     0       6.986  -0.684   3.391  0.00  0.00    +0.000 HD
ENDBRANCH  24  28
BRANCH  25  30
ATOM     30  O9  UNK     0       7.889   0.537   1.367  0.00  0.00    +0.000 OA
ATOM     31  H43 UNK     0       8.575   0.976   0.764  0.00  0.00    +0.000 HD
ENDBRANCH  25  30
ENDBRANCH  21  22
ENDBRANCH  18  20
ENDBRANCH  17  18
ENDBRANCH   2  17
TORSDOF 11
