REMARK  Name = C:\Users\Maximilian\Desktop\Conformers\converted_pdb\conformers_pdb\Chlorogenic Acid_conf_24.pdb
REMARK  11 active torsions:
REMARK  status: ('A' for Active; 'I' for Inactive)
REMARK    1  A    between atoms: C10_1  and  O2_26
REMARK    2  A    between atoms: C10_1  and  C16_28
REMARK    3  A    between atoms: C11_2  and  O1_7
REMARK    4  A    between atoms: C14_5  and  O3_22
REMARK    5  A    between atoms: C15_6  and  O4_24
REMARK    6  A    between atoms: O1_7  and  C17_8
REMARK    7  A    between atoms: C17_8  and  C18_10
REMARK    8  A    between atoms: C19_11  and  C20_12
REMARK    9  A    between atoms: C23_14  and  O8_18
REMARK   10  A    between atoms: C25_15  and  O9_20
REMARK   11  A    between atoms: C16_28  and  O5_30
REMARK                            x       y       z     vdW  Elec       q    Type
REMARK                         _______ _______ _______ _____ _____    ______ ____
ROOT
ATOM      1  C10 UNK     0      -3.816   1.025  -0.192  0.00  0.00    +0.000 C 
ATOM      2  C11 UNK     0      -1.393   0.198  -0.012  0.00  0.00    +0.000 C 
ATOM      3  C12 UNK     0      -2.552   0.929   0.700  0.00  0.00    +0.000 C 
ATOM      4  C13 UNK     0      -4.340  -0.399  -0.538  0.00  0.00    +0.000 C 
ATOM      5  C14 UNK     0      -1.875  -0.978  -0.912  0.00  0.00    +0.000 C 
ATOM      6  C15 UNK     0      -3.259  -1.502  -0.471  0.00  0.00    +0.000 C 
ENDROOT
BRANCH   5   7
ATOM      7  O3  UNK     0      -1.923  -0.551  -2.252  0.00  0.00    +0.000 OA
ATOM      8  H34 UNK     0      -1.883  -1.365  -2.819  0.00  0.00    +0.000 HD
ENDBRANCH   5   7
BRANCH   6   9
ATOM      9  O4  UNK     0      -3.652  -2.587  -1.272  0.00  0.00    +0.000 OA
ATOM     10  H35 UNK     0      -3.096  -3.363  -0.998  0.00  0.00    +0.000 HD
ENDBRANCH   6   9
BRANCH   1  11
ATOM     11  O2  UNK     0      -3.492   1.687  -1.394  0.00  0.00    +0.000 OA
ATOM     12  H33 UNK     0      -3.140   2.587  -1.165  0.00  0.00    +0.000 HD
ENDBRANCH   1  11
BRANCH   1  13
ATOM     13  C16 UNK     0      -4.910   1.796   0.517  0.00  0.00    +0.000 C 
ATOM     14  O6  UNK     0      -5.122   1.622   1.748  0.00  0.00    +0.000 OA
BRANCH  13  15
ATOM     15  O5  UNK     0      -5.735   2.655  -0.205  0.00  0.00    +0.000 OA
ATOM     16  H36 UNK     0      -6.486   3.160   0.251  0.00  0.00    +0.000 HD
ENDBRANCH  13  15
ENDBRANCH   1  13
BRANCH   2  17
ATOM     17  O1  UNK     0      -0.481  -0.276   0.982  0.00  0.00    +0.000 OA
BRANCH  17  18
ATOM     18  C17 UNK     0       0.845  -0.628   0.709  0.00  0.00    +0.000 C 
ATOM     19  O7  UNK     0       1.296  -0.550  -0.466  0.00  0.00    +0.000 OA
BRANCH  18  20
ATOM     20  C18 UNK     0       1.678  -1.147   1.811  0.00  0.00    +0.000 C 
ATOM     21  C19 UNK     0       3.017  -1.236   1.806  0.00  0.00    +0.000 C 
BRANCH  21  22
ATOM     22  C20 UNK     0       3.909  -0.663   0.775  0.00  0.00    +0.000 A 
ATOM     23  C21 UNK     0       3.782   0.676   0.366  0.00  0.00    +0.000 A 
ATOM     24  C23 UNK     0       4.667   1.215  -0.579  0.00  0.00    +0.000 A 
ATOM     25  C25 UNK     0       5.697   0.423  -1.102  0.00  0.00    +0.000 A 
ATOM     26  C24 UNK     0       5.844  -0.903  -0.672  0.00  0.00    +0.000 A 
ATOM     27  C22 UNK     0       4.961  -1.439   0.270  0.00  0.00    +0.000 A 
BRANCH  24  28
ATOM     28  O8  UNK     0       4.532   2.537  -0.999  0.00  0.00    +0.000 OA
ATOM     29  H42 UNK     0       3.797   3.135  -0.639  0.00  0.00    +0.000 HD
ENDBRANCH  24  28
BRANCH  25  30
ATOM     30  O9  UNK     0       6.573   0.960  -2.044  0.00  0.00    +0.000 OA
ATOM     31  H43 UNK     0       7.329   0.412  -2.438  0.00  0.00    +0.000 HD
ENDBRANCH  25  30
ENDBRANCH  21  22
ENDBRANCH  18  20
ENDBRANCH  17  18
ENDBRANCH   2  17
TORSDOF 11
