REMARK  Name = C:\Users\Maximilian\Desktop\Conformers\converted_pdb\conformers_pdb\Chlorogenic Acid_conf_28.pdb
REMARK  11 active torsions:
REMARK  status: ('A' for Active; 'I' for Inactive)
REMARK    1  A    between atoms: C10_1  and  O2_26
REMARK    2  A    between atoms: C10_1  and  C16_28
REMARK    3  A    between atoms: C11_2  and  O1_7
REMARK    4  A    between atoms: C14_5  and  O3_22
REMARK    5  A    between atoms: C15_6  and  O4_24
REMARK    6  A    between atoms: O1_7  and  C17_8
REMARK    7  A    between atoms: C17_8  and  C18_10
REMARK    8  A    between atoms: C19_11  and  C20_12
REMARK    9  A    between atoms: C23_14  and  O8_18
REMARK   10  A    between atoms: C25_15  and  O9_20
REMARK   11  A    between atoms: C16_28  and  O5_30
REMARK                            x       y       z     vdW  Elec       q    Type
REMARK                         _______ _______ _______ _____ _____    ______ ____
ROOT
ATOM      1  C10 UNK     0      -3.946  -0.533  -1.241  0.00  0.00    +0.000 C 
ATOM      2  C11 UNK     0      -2.030  -0.257   0.432  0.00  0.00    +0.000 C 
ATOM      3  C12 UNK     0      -2.477  -0.048  -1.024  0.00  0.00    +0.000 C 
ATOM      4  C13 UNK     0      -4.830  -0.275   0.017  0.00  0.00    +0.000 C 
ATOM      5  C14 UNK     0      -2.873   0.623   1.393  0.00  0.00    +0.000 C 
ATOM      6  C15 UNK     0      -4.317   0.894   0.873  0.00  0.00    +0.000 C 
ENDROOT
BRANCH   5   7
ATOM      7  O3  UNK     0      -2.885   0.057   2.681  0.00  0.00    +0.000 OA
ATOM      8  H34 UNK     0      -3.389  -0.796   2.629  0.00  0.00    +0.000 HD
ENDBRANCH   5   7
BRANCH   6   9
ATOM      9  O4  UNK     0      -5.203   1.115   1.940  0.00  0.00    +0.000 OA
ATOM     10  H35 UNK     0      -4.972   2.002   2.322  0.00  0.00    +0.000 HD
ENDBRANCH   6   9
BRANCH   1  11
ATOM     11  O2  UNK     0      -3.947  -1.925  -1.475  0.00  0.00    +0.000 OA
ATOM     12  H33 UNK     0      -3.397  -2.109  -2.281  0.00  0.00    +0.000 HD
ENDBRANCH   1  11
BRANCH   1  13
ATOM     13  C16 UNK     0      -4.552   0.181  -2.435  0.00  0.00    +0.000 C 
ATOM     14  O6  UNK     0      -4.601   1.441  -2.465  0.00  0.00    +0.000 OA
BRANCH  13  15
ATOM     15  O5  UNK     0      -5.093  -0.549  -3.491  0.00  0.00    +0.000 OA
ATOM     16  H36 UNK     0      -5.510  -0.081  -4.286  0.00  0.00    +0.000 HD
ENDBRANCH  13  15
ENDBRANCH   1  13
BRANCH   2  17
ATOM     17  O1  UNK     0      -0.649   0.080   0.581  0.00  0.00    +0.000 OA
BRANCH  17  18
ATOM     18  C17 UNK     0       0.399  -0.734   0.139  0.00  0.00    +0.000 C 
ATOM     19  O7  UNK     0       0.161  -1.859  -0.382  0.00  0.00    +0.000 OA
BRANCH  18  20
ATOM     20  C18 UNK     0       1.782  -0.257   0.299  0.00  0.00    +0.000 C 
ATOM     21  C19 UNK     0       2.841  -0.988  -0.077  0.00  0.00    +0.000 C 
BRANCH  21  22
ATOM     22  C20 UNK     0       4.248  -0.542   0.079  0.00  0.00    +0.000 A 
ATOM     23  C21 UNK     0       4.605   0.817   0.189  0.00  0.00    +0.000 A 
ATOM     24  C23 UNK     0       5.950   1.192   0.324  0.00  0.00    +0.000 A 
ATOM     25  C25 UNK     0       6.952   0.208   0.342  0.00  0.00    +0.000 A 
ATOM     26  C24 UNK     0       6.603  -1.139   0.218  0.00  0.00    +0.000 A 
ATOM     27  C22 UNK     0       5.263  -1.512   0.082  0.00  0.00    +0.000 A 
BRANCH  24  28
ATOM     28  O8  UNK     0       6.294   2.539   0.435  0.00  0.00    +0.000 OA
ATOM     29  H42 UNK     0       5.591   3.269   0.424  0.00  0.00    +0.000 HD
ENDBRANCH  24  28
BRANCH  25  30
ATOM     30  O9  UNK     0       8.297   0.550   0.479  0.00  0.00    +0.000 OA
ATOM     31  H43 UNK     0       8.601   1.512   0.571  0.00  0.00    +0.000 HD
ENDBRANCH  25  30
ENDBRANCH  21  22
ENDBRANCH  18  20
ENDBRANCH  17  18
ENDBRANCH   2  17
TORSDOF 11
