REMARK  Name = C:\Users\Maximilian\Desktop\Conformers\converted_pdb\conformers_pdb\Chlorogenic Acid_conf_17.pdb
REMARK  11 active torsions:
REMARK  status: ('A' for Active; 'I' for Inactive)
REMARK    1  A    between atoms: C10_1  and  O2_26
REMARK    2  A    between atoms: C10_1  and  C16_28
REMARK    3  A    between atoms: C11_2  and  O1_7
REMARK    4  A    between atoms: C14_5  and  O3_22
REMARK    5  A    between atoms: C15_6  and  O4_24
REMARK    6  A    between atoms: O1_7  and  C17_8
REMARK    7  A    between atoms: C17_8  and  C18_10
REMARK    8  A    between atoms: C19_11  and  C20_12
REMARK    9  A    between atoms: C23_14  and  O8_18
REMARK   10  A    between atoms: C25_15  and  O9_20
REMARK   11  A    between atoms: C16_28  and  O5_30
REMARK                            x       y       z     vdW  Elec       q    Type
REMARK                         _______ _______ _______ _____ _____    ______ ____
ROOT
ATOM      1  C10 UNK     0      -3.805   1.367  -0.146  0.00  0.00    +0.000 C 
ATOM      2  C11 UNK     0      -2.425  -0.376  -1.477  0.00  0.00    +0.000 C 
ATOM      3  C12 UNK     0      -3.368   0.841  -1.544  0.00  0.00    +0.000 C 
ATOM      4  C13 UNK     0      -4.397   0.191   0.672  0.00  0.00    +0.000 C 
ATOM      5  C14 UNK     0      -3.043  -1.514  -0.632  0.00  0.00    +0.000 C 
ATOM      6  C15 UNK     0      -3.434  -1.009   0.768  0.00  0.00    +0.000 C 
ENDROOT
BRANCH   5   7
ATOM      7  O3  UNK     0      -4.174  -2.039  -1.281  0.00  0.00    +0.000 OA
ATOM      8  H34 UNK     0      -3.841  -2.592  -2.036  0.00  0.00    +0.000 HD
ENDBRANCH   5   7
BRANCH   6   9
ATOM      9  O4  UNK     0      -4.045  -2.053   1.481  0.00  0.00    +0.000 OA
ATOM     10  H35 UNK     0      -4.029  -1.795   2.439  0.00  0.00    +0.000 HD
ENDBRANCH   6   9
BRANCH   1  11
ATOM     11  O2  UNK     0      -4.828   2.319  -0.312  0.00  0.00    +0.000 OA
ATOM     12  H33 UNK     0      -4.471   3.060  -0.871  0.00  0.00    +0.000 HD
ENDBRANCH   1  11
BRANCH   1  13
ATOM     13  C16 UNK     0      -2.650   2.031   0.589  0.00  0.00    +0.000 C 
ATOM     14  O6  UNK     0      -2.578   1.989   1.847  0.00  0.00    +0.000 OA
BRANCH  13  15
ATOM     15  O5  UNK     0      -1.710   2.776  -0.120  0.00  0.00    +0.000 OA
ATOM     16  H36 UNK     0      -0.949   3.243   0.359  0.00  0.00    +0.000 HD
ENDBRANCH  13  15
ENDBRANCH   1  13
BRANCH   2  17
ATOM     17  O1  UNK     0      -1.163   0.023  -0.939  0.00  0.00    +0.000 OA
BRANCH  17  18
ATOM     18  C17 UNK     0       0.011  -0.726  -1.067  0.00  0.00    +0.000 C 
ATOM     19  O7  UNK     0       0.020  -1.796  -1.737  0.00  0.00    +0.000 OA
BRANCH  18  20
ATOM     20  C18 UNK     0       1.234  -0.239  -0.409  0.00  0.00    +0.000 C 
ATOM     21  C19 UNK     0       2.403  -0.887  -0.499  0.00  0.00    +0.000 C 
BRANCH  21  22
ATOM     22  C20 UNK     0       3.657  -0.418   0.141  0.00  0.00    +0.000 A 
ATOM     23  C21 UNK     0       4.883  -0.896  -0.351  0.00  0.00    +0.000 A 
ATOM     24  C23 UNK     0       6.095  -0.490   0.226  0.00  0.00    +0.000 A 
ATOM     25  C25 UNK     0       6.087   0.397   1.314  0.00  0.00    +0.000 A 
ATOM     26  C24 UNK     0       4.870   0.864   1.819  0.00  0.00    +0.000 A 
ATOM     27  C22 UNK     0       3.663   0.459   1.244  0.00  0.00    +0.000 A 
BRANCH  24  28
ATOM     28  O8  UNK     0       7.305  -0.966  -0.278  0.00  0.00    +0.000 OA
ATOM     29  H42 UNK     0       7.339  -1.609  -1.060  0.00  0.00    +0.000 HD
ENDBRANCH  24  28
BRANCH  25  30
ATOM     30  O9  UNK     0       7.275   0.821   1.909  0.00  0.00    +0.000 OA
ATOM     31  H43 UNK     0       8.182   0.509   1.582  0.00  0.00    +0.000 HD
ENDBRANCH  25  30
ENDBRANCH  21  22
ENDBRANCH  18  20
ENDBRANCH  17  18
ENDBRANCH   2  17
TORSDOF 11
