REMARK  Name = C:\Users\Maximilian\Desktop\Conformers\converted_pdb\conformers_pdb\Chlorogenic Acid_conf_13.pdb
REMARK  11 active torsions:
REMARK  status: ('A' for Active; 'I' for Inactive)
REMARK    1  A    between atoms: C10_1  and  O2_26
REMARK    2  A    between atoms: C10_1  and  C16_28
REMARK    3  A    between atoms: C11_2  and  O1_7
REMARK    4  A    between atoms: C14_5  and  O3_22
REMARK    5  A    between atoms: C15_6  and  O4_24
REMARK    6  A    between atoms: O1_7  and  C17_8
REMARK    7  A    between atoms: C17_8  and  C18_10
REMARK    8  A    between atoms: C19_11  and  C20_12
REMARK    9  A    between atoms: C23_14  and  O8_18
REMARK   10  A    between atoms: C25_15  and  O9_20
REMARK   11  A    between atoms: C16_28  and  O5_30
REMARK                            x       y       z     vdW  Elec       q    Type
REMARK                         _______ _______ _______ _____ _____    ______ ____
ROOT
ATOM      1  C10 UNK     0      -4.077  -0.075   1.010  0.00  0.00    +0.000 C 
ATOM      2  C11 UNK     0      -1.858   0.839   0.129  0.00  0.00    +0.000 C 
ATOM      3  C12 UNK     0      -2.545  -0.256   0.970  0.00  0.00    +0.000 C 
ATOM      4  C13 UNK     0      -4.640  -0.036  -0.438  0.00  0.00    +0.000 C 
ATOM      5  C14 UNK     0      -2.431   0.849  -1.304  0.00  0.00    +0.000 C 
ATOM      6  C15 UNK     0      -3.964   1.039  -1.307  0.00  0.00    +0.000 C 
ENDROOT
BRANCH   5   7
ATOM      7  O3  UNK     0      -1.802   1.825  -2.098  0.00  0.00    +0.000 OA
ATOM      8  H34 UNK     0      -1.869   2.695  -1.625  0.00  0.00    +0.000 HD
ENDBRANCH   5   7
BRANCH   6   9
ATOM      9  O4  UNK     0      -4.314   2.317  -0.837  0.00  0.00    +0.000 OA
ATOM     10  H35 UNK     0      -4.297   2.931  -1.617  0.00  0.00    +0.000 HD
ENDBRANCH   6   9
BRANCH   1  11
ATOM     11  O2  UNK     0      -4.369   1.132   1.679  0.00  0.00    +0.000 OA
ATOM     12  H33 UNK     0      -5.355   1.251   1.680  0.00  0.00    +0.000 HD
ENDBRANCH   1  11
BRANCH   1  13
ATOM     13  C16 UNK     0      -4.677  -1.238   1.773  0.00  0.00    +0.000 C 
ATOM     14  O6  UNK     0      -5.032  -1.095   2.975  0.00  0.00    +0.000 OA
BRANCH  13  15
ATOM     15  O5  UNK     0      -4.784  -2.490   1.172  0.00  0.00    +0.000 OA
ATOM     16  H36 UNK     0      -5.164  -3.280   1.680  0.00  0.00    +0.000 HD
ENDBRANCH  13  15
ENDBRANCH   1  13
BRANCH   2  17
ATOM     17  O1  UNK     0      -0.453   0.590   0.063  0.00  0.00    +0.000 OA
BRANCH  17  18
ATOM     18  C17 UNK     0       0.430   0.839   1.121  0.00  0.00    +0.000 C 
ATOM     19  O7  UNK     0       0.015   1.359   2.192  0.00  0.00    +0.000 OA
BRANCH  18  20
ATOM     20  C18 UNK     0       1.857   0.507   0.993  0.00  0.00    +0.000 C 
ATOM     21  C19 UNK     0       2.354  -0.068  -0.111  0.00  0.00    +0.000 C 
BRANCH  21  22
ATOM     22  C20 UNK     0       3.782  -0.432  -0.279  0.00  0.00    +0.000 A 
ATOM     23  C21 UNK     0       4.813   0.182   0.458  0.00  0.00    +0.000 A 
ATOM     24  C23 UNK     0       6.153  -0.180   0.264  0.00  0.00    +0.000 A 
ATOM     25  C25 UNK     0       6.475  -1.173  -0.691  0.00  0.00    +0.000 A 
ATOM     26  C24 UNK     0       5.451  -1.769  -1.433  0.00  0.00    +0.000 A 
ATOM     27  C22 UNK     0       4.120  -1.400  -1.235  0.00  0.00    +0.000 A 
BRANCH  24  28
ATOM     28  O8  UNK     0       7.122   0.471   1.030  0.00  0.00    +0.000 OA
ATOM     29  H42 UNK     0       8.113   0.292   0.958  0.00  0.00    +0.000 HD
ENDBRANCH  24  28
BRANCH  25  30
ATOM     30  O9  UNK     0       7.786  -1.591  -0.933  0.00  0.00    +0.000 OA
ATOM     31  H43 UNK     0       8.593  -1.231  -0.444  0.00  0.00    +0.000 HD
ENDBRANCH  25  30
ENDBRANCH  21  22
ENDBRANCH  18  20
ENDBRANCH  17  18
ENDBRANCH   2  17
TORSDOF 11
