REMARK  Name = C:\Users\Maximilian\Desktop\Conformers\converted_pdb\conformers_pdb\Chlorogenic Acid_conf_33.pdb
REMARK  11 active torsions:
REMARK  status: ('A' for Active; 'I' for Inactive)
REMARK    1  A    between atoms: C10_1  and  O2_26
REMARK    2  A    between atoms: C10_1  and  C16_28
REMARK    3  A    between atoms: C11_2  and  O1_7
REMARK    4  A    between atoms: C14_5  and  O3_22
REMARK    5  A    between atoms: C15_6  and  O4_24
REMARK    6  A    between atoms: O1_7  and  C17_8
REMARK    7  A    between atoms: C17_8  and  C18_10
REMARK    8  A    between atoms: C19_11  and  C20_12
REMARK    9  A    between atoms: C23_14  and  O8_18
REMARK   10  A    between atoms: C25_15  and  O9_20
REMARK   11  A    between atoms: C16_28  and  O5_30
REMARK                            x       y       z     vdW  Elec       q    Type
REMARK                         _______ _______ _______ _____ _____    ______ ____
ROOT
ATOM      1  C10 UNK     0      -4.019  -0.923   1.019  0.00  0.00    +0.000 C 
ATOM      2  C11 UNK     0      -2.028   0.560   0.189  0.00  0.00    +0.000 C 
ATOM      3  C12 UNK     0      -2.510  -0.530   1.175  0.00  0.00    +0.000 C 
ATOM      4  C13 UNK     0      -4.787   0.097   0.138  0.00  0.00    +0.000 C 
ATOM      5  C14 UNK     0      -2.586   0.305  -1.225  0.00  0.00    +0.000 C 
ATOM      6  C15 UNK     0      -4.145   0.298  -1.258  0.00  0.00    +0.000 C 
ENDROOT
BRANCH   5   7
ATOM      7  O3  UNK     0      -2.053   1.213  -2.161  0.00  0.00    +0.000 OA
ATOM      8  H34 UNK     0      -2.140   2.128  -1.787  0.00  0.00    +0.000 HD
ENDBRANCH   5   7
BRANCH   6   9
ATOM      9  O4  UNK     0      -4.663   1.457  -1.865  0.00  0.00    +0.000 OA
ATOM     10  H35 UNK     0      -4.432   2.230  -1.286  0.00  0.00    +0.000 HD
ENDBRANCH   6   9
BRANCH   1  11
ATOM     11  O2  UNK     0      -4.616  -0.969   2.296  0.00  0.00    +0.000 OA
ATOM     12  H33 UNK     0      -4.585  -0.056   2.688  0.00  0.00    +0.000 HD
ENDBRANCH   1  11
BRANCH   1  13
ATOM     13  C16 UNK     0      -4.170  -2.304   0.407  0.00  0.00    +0.000 C 
ATOM     14  O6  UNK     0      -5.193  -2.994   0.667  0.00  0.00    +0.000 OA
BRANCH  13  15
ATOM     15  O5  UNK     0      -3.227  -2.799  -0.489  0.00  0.00    +0.000 OA
ATOM     16  H36 UNK     0      -3.342  -3.711  -0.915  0.00  0.00    +0.000 HD
ENDBRANCH  13  15
ENDBRANCH   1  13
BRANCH   2  17
ATOM     17  O1  UNK     0      -0.600   0.571   0.133  0.00  0.00    +0.000 OA
BRANCH  17  18
ATOM     18  C17 UNK     0       0.213   1.083   1.152  0.00  0.00    +0.000 C 
ATOM     19  O7  UNK     0      -0.300   1.620   2.171  0.00  0.00    +0.000 OA
BRANCH  18  20
ATOM     20  C18 UNK     0       1.678   1.010   1.042  0.00  0.00    +0.000 C 
ATOM     21  C19 UNK     0       2.281   0.431  -0.005  0.00  0.00    +0.000 C 
BRANCH  21  22
ATOM     22  C20 UNK     0       3.754   0.323  -0.152  0.00  0.00    +0.000 A 
ATOM     23  C21 UNK     0       4.272  -0.649  -1.024  0.00  0.00    +0.000 A 
ATOM     24  C23 UNK     0       5.653  -0.787  -1.206  0.00  0.00    +0.000 A 
ATOM     25  C25 UNK     0       6.536   0.062  -0.520  0.00  0.00    +0.000 A 
ATOM     26  C24 UNK     0       6.027   1.045   0.339  0.00  0.00    +0.000 A 
ATOM     27  C22 UNK     0       4.648   1.180   0.520  0.00  0.00    +0.000 A 
BRANCH  24  28
ATOM     28  O8  UNK     0       6.127  -1.771  -2.072  0.00  0.00    +0.000 OA
ATOM     29  H42 UNK     0       7.117  -1.911  -2.238  0.00  0.00    +0.000 HD
ENDBRANCH  24  28
BRANCH  25  30
ATOM     30  O9  UNK     0       7.913  -0.070  -0.696  0.00  0.00    +0.000 OA
ATOM     31  H43 UNK     0       8.569   0.532  -0.213  0.00  0.00    +0.000 HD
ENDBRANCH  25  30
ENDBRANCH  21  22
ENDBRANCH  18  20
ENDBRANCH  17  18
ENDBRANCH   2  17
TORSDOF 11
