REMARK  Name = C:\Users\Maximilian\Desktop\Conformers\converted_pdb\conformers_pdb\Chlorogenic Acid_conf_14.pdb
REMARK  11 active torsions:
REMARK  status: ('A' for Active; 'I' for Inactive)
REMARK    1  A    between atoms: C10_1  and  O2_26
REMARK    2  A    between atoms: C10_1  and  C16_28
REMARK    3  A    between atoms: C11_2  and  O1_7
REMARK    4  A    between atoms: C14_5  and  O3_22
REMARK    5  A    between atoms: C15_6  and  O4_24
REMARK    6  A    between atoms: O1_7  and  C17_8
REMARK    7  A    between atoms: C17_8  and  C18_10
REMARK    8  A    between atoms: C19_11  and  C20_12
REMARK    9  A    between atoms: C23_14  and  O8_18
REMARK   10  A    between atoms: C25_15  and  O9_20
REMARK   11  A    between atoms: C16_28  and  O5_30
REMARK                            x       y       z     vdW  Elec       q    Type
REMARK                         _______ _______ _______ _____ _____    ______ ____
ROOT
ATOM      1  C10 UNK     0      -3.089   0.936  -1.038  0.00  0.00    +0.000 C 
ATOM      2  C11 UNK     0      -1.596  -0.376   0.572  0.00  0.00    +0.000 C 
ATOM      3  C12 UNK     0      -2.059   1.021   0.123  0.00  0.00    +0.000 C 
ATOM      4  C13 UNK     0      -4.020  -0.313  -0.899  0.00  0.00    +0.000 C 
ATOM      5  C14 UNK     0      -2.781  -1.181   1.173  0.00  0.00    +0.000 C 
ATOM      6  C15 UNK     0      -4.159  -0.784   0.563  0.00  0.00    +0.000 C 
ENDROOT
BRANCH   5   7
ATOM      7  O3  UNK     0      -2.537  -2.562   1.059  0.00  0.00    +0.000 OA
ATOM      8  H34 UNK     0      -2.500  -2.782   0.092  0.00  0.00    +0.000 HD
ENDBRANCH   5   7
BRANCH   6   9
ATOM      9  O4  UNK     0      -5.099  -1.824   0.686  0.00  0.00    +0.000 OA
ATOM     10  H35 UNK     0      -4.883  -2.517   0.009  0.00  0.00    +0.000 HD
ENDBRANCH   6   9
BRANCH   1  11
ATOM     11  O2  UNK     0      -2.370   0.835  -2.247  0.00  0.00    +0.000 OA
ATOM     12  H33 UNK     0      -3.029   0.785  -2.990  0.00  0.00    +0.000 HD
ENDBRANCH   1  11
BRANCH   1  13
ATOM     13  C16 UNK     0      -3.902   2.215  -1.042  0.00  0.00    +0.000 C 
ATOM     14  O6  UNK     0      -3.552   3.186  -1.766  0.00  0.00    +0.000 OA
BRANCH  13  15
ATOM     15  O5  UNK     0      -4.998   2.353  -0.195  0.00  0.00    +0.000 OA
ATOM     16  H36 UNK     0      -5.533   3.213  -0.172  0.00  0.00    +0.000 HD
ENDBRANCH  13  15
ENDBRANCH   1  13
BRANCH   2  17
ATOM     17  O1  UNK     0      -0.563  -0.265   1.553  0.00  0.00    +0.000 OA
BRANCH  17  18
ATOM     18  C17 UNK     0       0.761   0.067   1.249  0.00  0.00    +0.000 C 
ATOM     19  O7  UNK     0       1.107   0.280   0.054  0.00  0.00    +0.000 OA
BRANCH  18  20
ATOM     20  C18 UNK     0       1.723   0.216   2.358  0.00  0.00    +0.000 C 
ATOM     21  C19 UNK     0       3.060   0.221   2.239  0.00  0.00    +0.000 C 
BRANCH  21  22
ATOM     22  C20 UNK     0       3.811  -0.104   1.009  0.00  0.00    +0.000 A 
ATOM     23  C21 UNK     0       4.880   0.717   0.620  0.00  0.00    +0.000 A 
ATOM     24  C23 UNK     0       5.639   0.406  -0.518  0.00  0.00    +0.000 A 
ATOM     25  C25 UNK     0       5.341  -0.749  -1.261  0.00  0.00    +0.000 A 
ATOM     26  C24 UNK     0       4.295  -1.585  -0.856  0.00  0.00    +0.000 A 
ATOM     27  C22 UNK     0       3.541  -1.272   0.278  0.00  0.00    +0.000 A 
BRANCH  24  28
ATOM     28  O8  UNK     0       6.687   1.237  -0.909  0.00  0.00    +0.000 OA
ATOM     29  H42 UNK     0       6.923   2.075  -0.390  0.00  0.00    +0.000 HD
ENDBRANCH  24  28
BRANCH  25  30
ATOM     30  O9  UNK     0       6.075  -1.085  -2.398  0.00  0.00    +0.000 OA
ATOM     31  H43 UNK     0       6.842  -0.514  -2.731  0.00  0.00    +0.000 HD
ENDBRANCH  25  30
ENDBRANCH  21  22
ENDBRANCH  18  20
ENDBRANCH  17  18
ENDBRANCH   2  17
TORSDOF 11
