REMARK  Name = C:\Users\Maximilian\Desktop\Conformers\converted_pdb\conformers_pdb\Chlorogenic Acid_conf_22.pdb
REMARK  11 active torsions:
REMARK  status: ('A' for Active; 'I' for Inactive)
REMARK    1  A    between atoms: C10_1  and  O2_26
REMARK    2  A    between atoms: C10_1  and  C16_28
REMARK    3  A    between atoms: C11_2  and  O1_7
REMARK    4  A    between atoms: C14_5  and  O3_22
REMARK    5  A    between atoms: C15_6  and  O4_24
REMARK    6  A    between atoms: O1_7  and  C17_8
REMARK    7  A    between atoms: C17_8  and  C18_10
REMARK    8  A    between atoms: C19_11  and  C20_12
REMARK    9  A    between atoms: C23_14  and  O8_18
REMARK   10  A    between atoms: C25_15  and  O9_20
REMARK   11  A    between atoms: C16_28  and  O5_30
REMARK                            x       y       z     vdW  Elec       q    Type
REMARK                         _______ _______ _______ _____ _____    ______ ____
ROOT
ATOM      1  C10 UNK     0      -4.111  -0.960  -0.552  0.00  0.00    +0.000 C 
ATOM      2  C11 UNK     0      -2.014   0.020   0.538  0.00  0.00    +0.000 C 
ATOM      3  C12 UNK     0      -2.551  -0.964  -0.509  0.00  0.00    +0.000 C 
ATOM      4  C13 UNK     0      -4.685   0.472  -0.328  0.00  0.00    +0.000 C 
ATOM      5  C14 UNK     0      -2.413   1.486   0.198  0.00  0.00    +0.000 C 
ATOM      6  C15 UNK     0      -3.677   1.575  -0.695  0.00  0.00    +0.000 C 
ENDROOT
BRANCH   5   7
ATOM      7  O3  UNK     0      -2.632   2.195   1.393  0.00  0.00    +0.000 OA
ATOM      8  H34 UNK     0      -1.768   2.608   1.653  0.00  0.00    +0.000 HD
ENDBRANCH   5   7
BRANCH   6   9
ATOM      9  O4  UNK     0      -4.272   2.840  -0.559  0.00  0.00    +0.000 OA
ATOM     10  H35 UNK     0      -4.887   2.954  -1.331  0.00  0.00    +0.000 HD
ENDBRANCH   6   9
BRANCH   1  11
ATOM     11  O2  UNK     0      -4.611  -1.781   0.481  0.00  0.00    +0.000 OA
ATOM     12  H33 UNK     0      -4.253  -2.699   0.354  0.00  0.00    +0.000 HD
ENDBRANCH   1  11
BRANCH   1  13
ATOM     13  C16 UNK     0      -4.580  -1.480  -1.898  0.00  0.00    +0.000 C 
ATOM     14  O6  UNK     0      -5.355  -2.472  -1.969  0.00  0.00    +0.000 OA
BRANCH  13  15
ATOM     15  O5  UNK     0      -4.179  -0.841  -3.069  0.00  0.00    +0.000 OA
ATOM     16  H36 UNK     0      -4.492  -1.170  -3.974  0.00  0.00    +0.000 HD
ENDBRANCH  13  15
ENDBRANCH   1  13
BRANCH   2  17
ATOM     17  O1  UNK     0      -0.592  -0.103   0.594  0.00  0.00    +0.000 OA
BRANCH  17  18
ATOM     18  C17 UNK     0       0.180   0.262   1.704  0.00  0.00    +0.000 C 
ATOM     19  O7  UNK     0      -0.373   0.635   2.774  0.00  0.00    +0.000 OA
BRANCH  18  20
ATOM     20  C18 UNK     0       1.648   0.199   1.643  0.00  0.00    +0.000 C 
ATOM     21  C19 UNK     0       2.295  -0.165   0.527  0.00  0.00    +0.000 C 
BRANCH  21  22
ATOM     22  C20 UNK     0       3.773  -0.230   0.414  0.00  0.00    +0.000 A 
ATOM     23  C21 UNK     0       4.352  -0.192  -0.865  0.00  0.00    +0.000 A 
ATOM     24  C23 UNK     0       5.740  -0.260  -1.027  0.00  0.00    +0.000 A 
ATOM     25  C25 UNK     0       6.570  -0.379   0.100  0.00  0.00    +0.000 A 
ATOM     26  C24 UNK     0       6.000  -0.433   1.378  0.00  0.00    +0.000 A 
ATOM     27  C22 UNK     0       4.613  -0.365   1.537  0.00  0.00    +0.000 A 
BRANCH  24  28
ATOM     28  O8  UNK     0       6.275  -0.209  -2.314  0.00  0.00    +0.000 OA
ATOM     29  H42 UNK     0       7.273  -0.254  -2.484  0.00  0.00    +0.000 HD
ENDBRANCH  24  28
BRANCH  25  30
ATOM     30  O9  UNK     0       7.954  -0.446  -0.054  0.00  0.00    +0.000 OA
ATOM     31  H43 UNK     0       8.573  -0.533   0.743  0.00  0.00    +0.000 HD
ENDBRANCH  25  30
ENDBRANCH  21  22
ENDBRANCH  18  20
ENDBRANCH  17  18
ENDBRANCH   2  17
TORSDOF 11
