REMARK  Name = C:\Users\Maximilian\Desktop\Conformers\converted_pdb\conformers_pdb\Chlorogenic Acid_conf_30.pdb
REMARK  11 active torsions:
REMARK  status: ('A' for Active; 'I' for Inactive)
REMARK    1  A    between atoms: C10_1  and  O2_26
REMARK    2  A    between atoms: C10_1  and  C16_28
REMARK    3  A    between atoms: C11_2  and  O1_7
REMARK    4  A    between atoms: C14_5  and  O3_22
REMARK    5  A    between atoms: C15_6  and  O4_24
REMARK    6  A    between atoms: O1_7  and  C17_8
REMARK    7  A    between atoms: C17_8  and  C18_10
REMARK    8  A    between atoms: C19_11  and  C20_12
REMARK    9  A    between atoms: C23_14  and  O8_18
REMARK   10  A    between atoms: C25_15  and  O9_20
REMARK   11  A    between atoms: C16_28  and  O5_30
REMARK                            x       y       z     vdW  Elec       q    Type
REMARK                         _______ _______ _______ _____ _____    ______ ____
ROOT
ATOM      1  C10 UNK     0      -3.677  -1.207  -1.265  0.00  0.00    +0.000 C 
ATOM      2  C11 UNK     0      -1.353  -0.190  -0.939  0.00  0.00    +0.000 C 
ATOM      3  C12 UNK     0      -2.716  -0.048  -1.634  0.00  0.00    +0.000 C 
ATOM      4  C13 UNK     0      -3.841  -1.271   0.270  0.00  0.00    +0.000 C 
ATOM      5  C14 UNK     0      -1.538  -0.242   0.594  0.00  0.00    +0.000 C 
ATOM      6  C15 UNK     0      -2.489  -1.384   1.005  0.00  0.00    +0.000 C 
ENDROOT
BRANCH   5   7
ATOM      7  O3  UNK     0      -0.291  -0.419   1.216  0.00  0.00    +0.000 OA
ATOM      8  H34 UNK     0      -0.402  -0.149   2.165  0.00  0.00    +0.000 HD
ENDBRANCH   5   7
BRANCH   6   9
ATOM      9  O4  UNK     0      -1.886  -2.627   0.746  0.00  0.00    +0.000 OA
ATOM     10  H35 UNK     0      -2.394  -3.306   1.263  0.00  0.00    +0.000 HD
ENDBRANCH   6   9
BRANCH   1  11
ATOM     11  O2  UNK     0      -3.152  -2.434  -1.719  0.00  0.00    +0.000 OA
ATOM     12  H33 UNK     0      -3.024  -2.368  -2.702  0.00  0.00    +0.000 HD
ENDBRANCH   1  11
BRANCH   1  13
ATOM     13  C16 UNK     0      -5.039  -0.975  -1.885  0.00  0.00    +0.000 C 
ATOM     14  O6  UNK     0      -5.684  -1.939  -2.382  0.00  0.00    +0.000 OA
BRANCH  13  15
ATOM     15  O5  UNK     0      -5.618   0.291  -1.853  0.00  0.00    +0.000 OA
ATOM     16  H36 UNK     0      -6.539   0.452  -2.244  0.00  0.00    +0.000 HD
ENDBRANCH  13  15
ENDBRANCH   1  13
BRANCH   2  17
ATOM     17  O1  UNK     0      -0.545   0.932  -1.300  0.00  0.00    +0.000 OA
BRANCH  17  18
ATOM     18  C17 UNK     0       0.853   0.933  -1.249  0.00  0.00    +0.000 C 
ATOM     19  O7  UNK     0       1.485  -0.134  -1.020  0.00  0.00    +0.000 OA
BRANCH  18  20
ATOM     20  C18 UNK     0       1.570   2.189  -1.533  0.00  0.00    +0.000 C 
ATOM     21  C19 UNK     0       2.819   2.476  -1.131  0.00  0.00    +0.000 C 
BRANCH  21  22
ATOM     22  C20 UNK     0       3.615   1.667  -0.183  0.00  0.00    +0.000 A 
ATOM     23  C21 UNK     0       3.066   1.211   1.029  0.00  0.00    +0.000 A 
ATOM     24  C23 UNK     0       3.848   0.477   1.931  0.00  0.00    +0.000 A 
ATOM     25  C25 UNK     0       5.193   0.218   1.638  0.00  0.00    +0.000 A 
ATOM     26  C24 UNK     0       5.752   0.700   0.447  0.00  0.00    +0.000 A 
ATOM     27  C22 UNK     0       4.970   1.430  -0.453  0.00  0.00    +0.000 A 
BRANCH  24  28
ATOM     28  O8  UNK     0       3.297   0.007   3.122  0.00  0.00    +0.000 OA
ATOM     29  H42 UNK     0       2.326   0.177   3.360  0.00  0.00    +0.000 HD
ENDBRANCH  24  28
BRANCH  25  30
ATOM     30  O9  UNK     0       5.968  -0.514   2.536  0.00  0.00    +0.000 OA
ATOM     31  H43 UNK     0       6.944  -0.716   2.352  0.00  0.00    +0.000 HD
ENDBRANCH  25  30
ENDBRANCH  21  22
ENDBRANCH  18  20
ENDBRANCH  17  18
ENDBRANCH   2  17
TORSDOF 11
