REMARK  Name = C:\Users\Maximilian\Desktop\Conformers\converted_pdb\conformers_pdb\Chlorogenic Acid_conf_34.pdb
REMARK  11 active torsions:
REMARK  status: ('A' for Active; 'I' for Inactive)
REMARK    1  A    between atoms: C10_1  and  O2_26
REMARK    2  A    between atoms: C10_1  and  C16_28
REMARK    3  A    between atoms: C11_2  and  O1_7
REMARK    4  A    between atoms: C14_5  and  O3_22
REMARK    5  A    between atoms: C15_6  and  O4_24
REMARK    6  A    between atoms: O1_7  and  C17_8
REMARK    7  A    between atoms: C17_8  and  C18_10
REMARK    8  A    between atoms: C19_11  and  C20_12
REMARK    9  A    between atoms: C23_14  and  O8_18
REMARK   10  A    between atoms: C25_15  and  O9_20
REMARK   11  A    between atoms: C16_28  and  O5_30
REMARK                            x       y       z     vdW  Elec       q    Type
REMARK                         _______ _______ _______ _____ _____    ______ ____
ROOT
ATOM      1  C10 UNK     0      -3.477  -0.511   0.400  0.00  0.00    +0.000 C 
ATOM      2  C11 UNK     0      -1.493   0.882  -0.416  0.00  0.00    +0.000 C 
ATOM      3  C12 UNK     0      -2.255  -0.450  -0.553  0.00  0.00    +0.000 C 
ATOM      4  C13 UNK     0      -4.408   0.694   0.133  0.00  0.00    +0.000 C 
ATOM      5  C14 UNK     0      -2.442   2.066  -0.697  0.00  0.00    +0.000 C 
ATOM      6  C15 UNK     0      -3.673   2.046   0.234  0.00  0.00    +0.000 C 
ENDROOT
BRANCH   5   7
ATOM      7  O3  UNK     0      -1.763   3.295  -0.603  0.00  0.00    +0.000 OA
ATOM      8  H34 UNK     0      -1.348   3.347   0.298  0.00  0.00    +0.000 HD
ENDBRANCH   5   7
BRANCH   6   9
ATOM      9  O4  UNK     0      -3.283   2.297   1.561  0.00  0.00    +0.000 OA
ATOM     10  H35 UNK     0      -4.106   2.542   2.060  0.00  0.00    +0.000 HD
ENDBRANCH   6   9
BRANCH   1  11
ATOM     11  O2  UNK     0      -3.046  -0.464   1.742  0.00  0.00    +0.000 OA
ATOM     12  H33 UNK     0      -2.429  -1.228   1.893  0.00  0.00    +0.000 HD
ENDBRANCH   1  11
BRANCH   1  13
ATOM     13  C16 UNK     0      -4.262  -1.785   0.163  0.00  0.00    +0.000 C 
ATOM     14  O6  UNK     0      -4.749  -2.422   1.136  0.00  0.00    +0.000 OA
BRANCH  13  15
ATOM     15  O5  UNK     0      -4.506  -2.227  -1.136  0.00  0.00    +0.000 OA
ATOM     16  H36 UNK     0      -5.048  -3.066  -1.306  0.00  0.00    +0.000 HD
ENDBRANCH  13  15
ENDBRANCH   1  13
BRANCH   2  17
ATOM     17  O1  UNK     0      -0.412   0.923  -1.349  0.00  0.00    +0.000 OA
BRANCH  17  18
ATOM     18  C17 UNK     0       0.788   0.226  -1.173  0.00  0.00    +0.000 C 
ATOM     19  O7  UNK     0       0.970  -0.483  -0.146  0.00  0.00    +0.000 OA
BRANCH  18  20
ATOM     20  C18 UNK     0       1.806   0.295  -2.239  0.00  0.00    +0.000 C 
ATOM     21  C19 UNK     0       3.100  -0.038  -2.109  0.00  0.00    +0.000 C 
BRANCH  21  22
ATOM     22  C20 UNK     0       3.777  -0.358  -0.835  0.00  0.00    +0.000 A 
ATOM     23  C21 UNK     0       4.627  -1.471  -0.771  0.00  0.00    +0.000 A 
ATOM     24  C23 UNK     0       5.318  -1.772   0.409  0.00  0.00    +0.000 A 
ATOM     25  C25 UNK     0       5.176  -0.941   1.533  0.00  0.00    +0.000 A 
ATOM     26  C24 UNK     0       4.351   0.189   1.462  0.00  0.00    +0.000 A 
ATOM     27  C22 UNK     0       3.664   0.486   0.282  0.00  0.00    +0.000 A 
BRANCH  24  28
ATOM     28  O8  UNK     0       6.141  -2.898   0.445  0.00  0.00    +0.000 OA
ATOM     29  H42 UNK     0       6.662  -3.158   1.273  0.00  0.00    +0.000 HD
ENDBRANCH  24  28
BRANCH  25  30
ATOM     30  O9  UNK     0       5.859  -1.236   2.713  0.00  0.00    +0.000 OA
ATOM     31  H43 UNK     0       5.774  -0.651   3.536  0.00  0.00    +0.000 HD
ENDBRANCH  25  30
ENDBRANCH  21  22
ENDBRANCH  18  20
ENDBRANCH  17  18
ENDBRANCH   2  17
TORSDOF 11
