REMARK  Name = C:\Users\Maximilian\Desktop\Conformers\converted_pdb\conformers_pdb\Chlorogenic Acid_conf_6.pdb
REMARK  11 active torsions:
REMARK  status: ('A' for Active; 'I' for Inactive)
REMARK    1  A    between atoms: C10_1  and  O2_26
REMARK    2  A    between atoms: C10_1  and  C16_28
REMARK    3  A    between atoms: C11_2  and  O1_7
REMARK    4  A    between atoms: C14_5  and  O3_22
REMARK    5  A    between atoms: C15_6  and  O4_24
REMARK    6  A    between atoms: O1_7  and  C17_8
REMARK    7  A    between atoms: C17_8  and  C18_10
REMARK    8  A    between atoms: C19_11  and  C20_12
REMARK    9  A    between atoms: C23_14  and  O8_18
REMARK   10  A    between atoms: C25_15  and  O9_20
REMARK   11  A    between atoms: C16_28  and  O5_30
REMARK                            x       y       z     vdW  Elec       q    Type
REMARK                         _______ _______ _______ _____ _____    ______ ____
ROOT
ATOM      1  C10 UNK     0      -4.074  -0.741   0.744  0.00  0.00    +0.000 C 
ATOM      2  C11 UNK     0      -2.037   0.661   0.104  0.00  0.00    +0.000 C 
ATOM      3  C12 UNK     0      -2.616  -0.760   0.211  0.00  0.00    +0.000 C 
ATOM      4  C13 UNK     0      -4.860   0.514   0.241  0.00  0.00    +0.000 C 
ATOM      5  C14 UNK     0      -2.820   1.493  -0.945  0.00  0.00    +0.000 C 
ATOM      6  C15 UNK     0      -4.312   1.063  -1.085  0.00  0.00    +0.000 C 
ENDROOT
BRANCH   5   7
ATOM      7  O3  UNK     0      -2.702   2.866  -0.659  0.00  0.00    +0.000 OA
ATOM      8  H34 UNK     0      -3.183   3.036   0.193  0.00  0.00    +0.000 HD
ENDBRANCH   5   7
BRANCH   6   9
ATOM      9  O4  UNK     0      -5.108   2.139  -1.510  0.00  0.00    +0.000 OA
ATOM     10  H35 UNK     0      -4.873   2.309  -2.459  0.00  0.00    +0.000 HD
ENDBRANCH   6   9
BRANCH   1  11
ATOM     11  O2  UNK     0      -4.019  -0.708   2.153  0.00  0.00    +0.000 OA
ATOM     12  H33 UNK     0      -4.953  -0.700   2.494  0.00  0.00    +0.000 HD
ENDBRANCH   1  11
BRANCH   1  13
ATOM     13  C16 UNK     0      -4.757  -2.019   0.298  0.00  0.00    +0.000 C 
ATOM     14  O6  UNK     0      -4.766  -3.030   1.052  0.00  0.00    +0.000 OA
BRANCH  13  15
ATOM     15  O5  UNK     0      -5.317  -2.109  -0.974  0.00  0.00    +0.000 OA
ATOM     16  H36 UNK     0      -5.754  -2.966  -1.290  0.00  0.00    +0.000 HD
ENDBRANCH  13  15
ENDBRANCH   1  13
BRANCH   2  17
ATOM     17  O1  UNK     0      -0.660   0.608  -0.275  0.00  0.00    +0.000 OA
BRANCH  17  18
ATOM     18  C17 UNK     0       0.372   0.250   0.600  0.00  0.00    +0.000 C 
ATOM     19  O7  UNK     0       0.126  -0.003   1.812  0.00  0.00    +0.000 OA
BRANCH  18  20
ATOM     20  C18 UNK     0       1.747   0.179   0.081  0.00  0.00    +0.000 C 
ATOM     21  C19 UNK     0       2.792  -0.134   0.861  0.00  0.00    +0.000 C 
BRANCH  21  22
ATOM     22  C20 UNK     0       4.193  -0.204   0.374  0.00  0.00    +0.000 A 
ATOM     23  C21 UNK     0       5.235  -0.105   1.309  0.00  0.00    +0.000 A 
ATOM     24  C23 UNK     0       6.576  -0.174   0.909  0.00  0.00    +0.000 A 
ATOM     25  C25 UNK     0       6.886  -0.357  -0.459  0.00  0.00    +0.000 A 
ATOM     26  C24 UNK     0       5.847  -0.472  -1.388  0.00  0.00    +0.000 A 
ATOM     27  C22 UNK     0       4.513  -0.402  -0.981  0.00  0.00    +0.000 A 
BRANCH  24  28
ATOM     28  O8  UNK     0       7.557  -0.058   1.896  0.00  0.00    +0.000 OA
ATOM     29  H42 UNK     0       8.549  -0.098   1.713  0.00  0.00    +0.000 HD
ENDBRANCH  24  28
BRANCH  25  30
ATOM     30  O9  UNK     0       8.197  -0.432  -0.932  0.00  0.00    +0.000 OA
ATOM     31  H43 UNK     0       9.015  -0.358  -0.345  0.00  0.00    +0.000 HD
ENDBRANCH  25  30
ENDBRANCH  21  22
ENDBRANCH  18  20
ENDBRANCH  17  18
ENDBRANCH   2  17
TORSDOF 11
