REMARK  Name = C:\Users\Maximilian\Desktop\Conformers\converted_pdb\conformers_pdb\Chlorogenic Acid_conf_15.pdb
REMARK  11 active torsions:
REMARK  status: ('A' for Active; 'I' for Inactive)
REMARK    1  A    between atoms: C10_1  and  O2_26
REMARK    2  A    between atoms: C10_1  and  C16_28
REMARK    3  A    between atoms: C11_2  and  O1_7
REMARK    4  A    between atoms: C14_5  and  O3_22
REMARK    5  A    between atoms: C15_6  and  O4_24
REMARK    6  A    between atoms: O1_7  and  C17_8
REMARK    7  A    between atoms: C17_8  and  C18_10
REMARK    8  A    between atoms: C19_11  and  C20_12
REMARK    9  A    between atoms: C23_14  and  O8_18
REMARK   10  A    between atoms: C25_15  and  O9_20
REMARK   11  A    between atoms: C16_28  and  O5_30
REMARK                            x       y       z     vdW  Elec       q    Type
REMARK                         _______ _______ _______ _____ _____    ______ ____
ROOT
ATOM      1  C10 UNK     0      -4.031  -0.862  -0.573  0.00  0.00    +0.000 C 
ATOM      2  C11 UNK     0      -2.029   0.349   0.460  0.00  0.00    +0.000 C 
ATOM      3  C12 UNK     0      -2.505  -0.596  -0.659  0.00  0.00    +0.000 C 
ATOM      4  C13 UNK     0      -4.794   0.481  -0.610  0.00  0.00    +0.000 C 
ATOM      5  C14 UNK     0      -2.792   1.685   0.391  0.00  0.00    +0.000 C 
ATOM      6  C15 UNK     0      -4.317   1.465   0.478  0.00  0.00    +0.000 C 
ENDROOT
BRANCH   5   7
ATOM      7  O3  UNK     0      -2.366   2.515   1.441  0.00  0.00    +0.000 OA
ATOM      8  H34 UNK     0      -2.659   3.436   1.215  0.00  0.00    +0.000 HD
ENDBRANCH   5   7
BRANCH   6   9
ATOM      9  O4  UNK     0      -4.662   0.997   1.758  0.00  0.00    +0.000 OA
ATOM     10  H35 UNK     0      -5.641   1.127   1.856  0.00  0.00    +0.000 HD
ENDBRANCH   6   9
BRANCH   1  11
ATOM     11  O2  UNK     0      -4.338  -1.525   0.632  0.00  0.00    +0.000 OA
ATOM     12  H33 UNK     0      -3.820  -2.373   0.657  0.00  0.00    +0.000 HD
ENDBRANCH   1  11
BRANCH   1  13
ATOM     13  C16 UNK     0      -4.487  -1.710  -1.742  0.00  0.00    +0.000 C 
ATOM     14  O6  UNK     0      -4.087  -1.456  -2.911  0.00  0.00    +0.000 OA
BRANCH  13  15
ATOM     15  O5  UNK     0      -5.402  -2.740  -1.541  0.00  0.00    +0.000 OA
ATOM     16  H36 UNK     0      -5.732  -3.302  -2.317  0.00  0.00    +0.000 HD
ENDBRANCH  13  15
ENDBRANCH   1  13
BRANCH   2  17
ATOM     17  O1  UNK     0      -0.631   0.608   0.315  0.00  0.00    +0.000 OA
BRANCH  17  18
ATOM     18  C17 UNK     0       0.366  -0.311   0.658  0.00  0.00    +0.000 C 
ATOM     19  O7  UNK     0       0.062  -1.423   1.173  0.00  0.00    +0.000 OA
BRANCH  18  20
ATOM     20  C18 UNK     0       1.773   0.045   0.412  0.00  0.00    +0.000 C 
ATOM     21  C19 UNK     0       2.786  -0.771   0.735  0.00  0.00    +0.000 C 
BRANCH  21  22
ATOM     22  C20 UNK     0       4.215  -0.439   0.512  0.00  0.00    +0.000 A 
ATOM     23  C21 UNK     0       4.633   0.508  -0.445  0.00  0.00    +0.000 A 
ATOM     24  C23 UNK     0       5.997   0.780  -0.628  0.00  0.00    +0.000 A 
ATOM     25  C25 UNK     0       6.954   0.104   0.137  0.00  0.00    +0.000 A 
ATOM     26  C24 UNK     0       6.546  -0.848   1.079  0.00  0.00    +0.000 A 
ATOM     27  C22 UNK     0       5.188  -1.121   1.261  0.00  0.00    +0.000 A 
BRANCH  24  28
ATOM     28  O8  UNK     0       6.408   1.719  -1.573  0.00  0.00    +0.000 OA
ATOM     29  H42 UNK     0       5.741   2.225  -2.144  0.00  0.00    +0.000 HD
ENDBRANCH  24  28
BRANCH  25  30
ATOM     30  O9  UNK     0       8.308   0.381  -0.046  0.00  0.00    +0.000 OA
ATOM     31  H43 UNK     0       9.023  -0.093   0.493  0.00  0.00    +0.000 HD
ENDBRANCH  25  30
ENDBRANCH  21  22
ENDBRANCH  18  20
ENDBRANCH  17  18
ENDBRANCH   2  17
TORSDOF 11
