REMARK  Name = C:\Users\Maximilian\Desktop\Conformers\converted_pdb\conformers_pdb\Chlorogenic Acid_conf_37.pdb
REMARK  11 active torsions:
REMARK  status: ('A' for Active; 'I' for Inactive)
REMARK    1  A    between atoms: C10_1  and  O2_26
REMARK    2  A    between atoms: C10_1  and  C16_28
REMARK    3  A    between atoms: C11_2  and  O1_7
REMARK    4  A    between atoms: C14_5  and  O3_22
REMARK    5  A    between atoms: C15_6  and  O4_24
REMARK    6  A    between atoms: O1_7  and  C17_8
REMARK    7  A    between atoms: C17_8  and  C18_10
REMARK    8  A    between atoms: C19_11  and  C20_12
REMARK    9  A    between atoms: C23_14  and  O8_18
REMARK   10  A    between atoms: C25_15  and  O9_20
REMARK   11  A    between atoms: C16_28  and  O5_30
REMARK                            x       y       z     vdW  Elec       q    Type
REMARK                         _______ _______ _______ _____ _____    ______ ____
ROOT
ATOM      1  C10 UNK     0      -3.462   0.772   0.510  0.00  0.00    +0.000 C 
ATOM      2  C11 UNK     0      -2.544  -1.193  -0.907  0.00  0.00    +0.000 C 
ATOM      3  C12 UNK     0      -3.289   0.160  -0.904  0.00  0.00    +0.000 C 
ATOM      4  C13 UNK     0      -4.110  -0.284   1.450  0.00  0.00    +0.000 C 
ATOM      5  C14 UNK     0      -3.225  -2.202   0.037  0.00  0.00    +0.000 C 
ATOM      6  C15 UNK     0      -3.355  -1.626   1.461  0.00  0.00    +0.000 C 
ENDROOT
BRANCH   5   7
ATOM      7  O3  UNK     0      -4.497  -2.547  -0.453  0.00  0.00    +0.000 OA
ATOM      8  H34 UNK     0      -4.353  -3.166  -1.217  0.00  0.00    +0.000 HD
ENDBRANCH   5   7
BRANCH   6   9
ATOM      9  O4  UNK     0      -4.044  -2.530   2.285  0.00  0.00    +0.000 OA
ATOM     10  H35 UNK     0      -3.418  -3.276   2.480  0.00  0.00    +0.000 HD
ENDBRANCH   6   9
BRANCH   1  11
ATOM     11  O2  UNK     0      -4.335   1.869   0.389  0.00  0.00    +0.000 OA
ATOM     12  H33 UNK     0      -4.467   2.257   1.294  0.00  0.00    +0.000 HD
ENDBRANCH   1  11
BRANCH   1  13
ATOM     13  C16 UNK     0      -2.129   1.284   1.036  0.00  0.00    +0.000 C 
ATOM     14  O6  UNK     0      -1.764   1.051   2.220  0.00  0.00    +0.000 OA
BRANCH  13  15
ATOM     15  O5  UNK     0      -1.332   2.087   0.224  0.00  0.00    +0.000 OA
ATOM     16  H36 UNK     0      -0.448   2.450   0.560  0.00  0.00    +0.000 HD
ENDBRANCH  13  15
ENDBRANCH   1  13
BRANCH   2  17
ATOM     17  O1  UNK     0      -1.179  -1.027  -0.517  0.00  0.00    +0.000 OA
BRANCH  17  18
ATOM     18  C17 UNK     0      -0.199  -0.468  -1.344  0.00  0.00    +0.000 C 
ATOM     19  O7  UNK     0      -0.465  -0.164  -2.540  0.00  0.00    +0.000 OA
BRANCH  18  20
ATOM     20  C18 UNK     0       1.144  -0.233  -0.788  0.00  0.00    +0.000 C 
ATOM     21  C19 UNK     0       2.138   0.297  -1.514  0.00  0.00    +0.000 C 
BRANCH  21  22
ATOM     22  C20 UNK     0       3.500   0.548  -0.983  0.00  0.00    +0.000 A 
ATOM     23  C21 UNK     0       3.758   0.710   0.393  0.00  0.00    +0.000 A 
ATOM     24  C23 UNK     0       5.057   0.958   0.851  0.00  0.00    +0.000 A 
ATOM     25  C25 UNK     0       6.116   1.057  -0.066  0.00  0.00    +0.000 A 
ATOM     26  C24 UNK     0       5.862   0.913  -1.436  0.00  0.00    +0.000 A 
ATOM     27  C22 UNK     0       4.565   0.667  -1.890  0.00  0.00    +0.000 A 
BRANCH  24  28
ATOM     28  O8  UNK     0       5.276   1.109   2.220  0.00  0.00    +0.000 OA
ATOM     29  H42 UNK     0       6.196   1.292   2.602  0.00  0.00    +0.000 HD
ENDBRANCH  24  28
BRANCH  25  30
ATOM     30  O9  UNK     0       7.413   1.301   0.385  0.00  0.00    +0.000 OA
ATOM     31  H43 UNK     0       8.192   1.377  -0.258  0.00  0.00    +0.000 HD
ENDBRANCH  25  30
ENDBRANCH  21  22
ENDBRANCH  18  20
ENDBRANCH  17  18
ENDBRANCH   2  17
TORSDOF 11
