REMARK  Name = C:\Users\Maximilian\Desktop\Conformers\converted_pdb\conformers_pdb\Chlorogenic Acid_conf_26.pdb
REMARK  11 active torsions:
REMARK  status: ('A' for Active; 'I' for Inactive)
REMARK    1  A    between atoms: C10_1  and  O2_26
REMARK    2  A    between atoms: C10_1  and  C16_28
REMARK    3  A    between atoms: C11_2  and  O1_7
REMARK    4  A    between atoms: C14_5  and  O3_22
REMARK    5  A    between atoms: C15_6  and  O4_24
REMARK    6  A    between atoms: O1_7  and  C17_8
REMARK    7  A    between atoms: C17_8  and  C18_10
REMARK    8  A    between atoms: C19_11  and  C20_12
REMARK    9  A    between atoms: C23_14  and  O8_18
REMARK   10  A    between atoms: C25_15  and  O9_20
REMARK   11  A    between atoms: C16_28  and  O5_30
REMARK                            x       y       z     vdW  Elec       q    Type
REMARK                         _______ _______ _______ _____ _____    ______ ____
ROOT
ATOM      1  C10 UNK     0      -4.008   0.034   0.876  0.00  0.00    +0.000 C 
ATOM      2  C11 UNK     0      -2.268   0.883  -0.848  0.00  0.00    +0.000 C 
ATOM      3  C12 UNK     0      -3.328   1.259   0.212  0.00  0.00    +0.000 C 
ATOM      4  C13 UNK     0      -4.647  -0.918  -0.193  0.00  0.00    +0.000 C 
ATOM      5  C14 UNK     0      -2.645  -0.379  -1.676  0.00  0.00    +0.000 C 
ATOM      6  C15 UNK     0      -4.154  -0.684  -1.640  0.00  0.00    +0.000 C 
ENDROOT
BRANCH   5   7
ATOM      7  O3  UNK     0      -2.228  -0.203  -3.006  0.00  0.00    +0.000 OA
ATOM      8  H34 UNK     0      -2.195  -1.104  -3.422  0.00  0.00    +0.000 HD
ENDBRANCH   5   7
BRANCH   6   9
ATOM      9  O4  UNK     0      -4.864   0.372  -2.239  0.00  0.00    +0.000 OA
ATOM     10  H35 UNK     0      -5.760   0.017  -2.479  0.00  0.00    +0.000 HD
ENDBRANCH   6   9
BRANCH   1  11
ATOM     11  O2  UNK     0      -5.018   0.486   1.748  0.00  0.00    +0.000 OA
ATOM     12  H33 UNK     0      -5.668   1.023   1.222  0.00  0.00    +0.000 HD
ENDBRANCH   1  11
BRANCH   1  13
ATOM     13  C16 UNK     0      -2.984  -0.688   1.731  0.00  0.00    +0.000 C 
ATOM     14  O6  UNK     0      -2.327  -1.666   1.281  0.00  0.00    +0.000 OA
BRANCH  13  15
ATOM     15  O5  UNK     0      -2.715  -0.222   3.016  0.00  0.00    +0.000 OA
ATOM     16  H36 UNK     0      -2.018  -0.672   3.596  0.00  0.00    +0.000 HD
ENDBRANCH  13  15
ENDBRANCH   1  13
BRANCH   2  17
ATOM     17  O1  UNK     0      -1.013   0.684  -0.193  0.00  0.00    +0.000 OA
BRANCH  17  18
ATOM     18  C17 UNK     0       0.220   0.685  -0.854  0.00  0.00    +0.000 C 
ATOM     19  O7  UNK     0       0.286   0.940  -2.088  0.00  0.00    +0.000 OA
BRANCH  18  20
ATOM     20  C18 UNK     0       1.436   0.389  -0.080  0.00  0.00    +0.000 C 
ATOM     21  C19 UNK     0       2.657   0.391  -0.634  0.00  0.00    +0.000 C 
BRANCH  21  22
ATOM     22  C20 UNK     0       3.904   0.106   0.118  0.00  0.00    +0.000 A 
ATOM     23  C21 UNK     0       5.127   0.549  -0.414  0.00  0.00    +0.000 A 
ATOM     24  C23 UNK     0       6.334   0.296   0.254  0.00  0.00    +0.000 A 
ATOM     25  C25 UNK     0       6.325  -0.416   1.464  0.00  0.00    +0.000 A 
ATOM     26  C24 UNK     0       5.114  -0.873   1.991  0.00  0.00    +0.000 A 
ATOM     27  C22 UNK     0       3.911  -0.620   1.325  0.00  0.00    +0.000 A 
BRANCH  24  28
ATOM     28  O8  UNK     0       7.538   0.750  -0.280  0.00  0.00    +0.000 OA
ATOM     29  H42 UNK     0       7.572   1.266  -1.152  0.00  0.00    +0.000 HD
ENDBRANCH  24  28
BRANCH  25  30
ATOM     30  O9  UNK     0       7.508  -0.683   2.153  0.00  0.00    +0.000 OA
ATOM     31  H43 UNK     0       8.410  -0.374   1.812  0.00  0.00    +0.000 HD
ENDBRANCH  25  30
ENDBRANCH  21  22
ENDBRANCH  18  20
ENDBRANCH  17  18
ENDBRANCH   2  17
TORSDOF 11
