REMARK  Name = C:\Users\Maximilian\Desktop\Conformers\converted_pdb\conformers_pdb\Chlorogenic Acid_conf_4.pdb
REMARK  11 active torsions:
REMARK  status: ('A' for Active; 'I' for Inactive)
REMARK    1  A    between atoms: C10_1  and  O2_26
REMARK    2  A    between atoms: C10_1  and  C16_28
REMARK    3  A    between atoms: C11_2  and  O1_7
REMARK    4  A    between atoms: C14_5  and  O3_22
REMARK    5  A    between atoms: C15_6  and  O4_24
REMARK    6  A    between atoms: O1_7  and  C17_8
REMARK    7  A    between atoms: C17_8  and  C18_10
REMARK    8  A    between atoms: C19_11  and  C20_12
REMARK    9  A    between atoms: C23_14  and  O8_18
REMARK   10  A    between atoms: C25_15  and  O9_20
REMARK   11  A    between atoms: C16_28  and  O5_30
REMARK                            x       y       z     vdW  Elec       q    Type
REMARK                         _______ _______ _______ _____ _____    ______ ____
ROOT
ATOM      1  C10 UNK     0      -4.035   1.070  -0.496  0.00  0.00    +0.000 C 
ATOM      2  C11 UNK     0      -1.935  -0.383  -0.684  0.00  0.00    +0.000 C 
ATOM      3  C12 UNK     0      -2.487   1.030  -0.444  0.00  0.00    +0.000 C 
ATOM      4  C13 UNK     0      -4.619   0.086   0.544  0.00  0.00    +0.000 C 
ATOM      5  C14 UNK     0      -2.508  -1.364   0.369  0.00  0.00    +0.000 C 
ATOM      6  C15 UNK     0      -4.058  -1.348   0.426  0.00  0.00    +0.000 C 
ENDROOT
BRANCH   5   7
ATOM      7  O3  UNK     0      -2.029  -2.671   0.173  0.00  0.00    +0.000 OA
ATOM      8  H34 UNK     0      -2.290  -2.957  -0.740  0.00  0.00    +0.000 HD
ENDBRANCH   5   7
BRANCH   6   9
ATOM      9  O4  UNK     0      -4.656  -2.044  -0.642  0.00  0.00    +0.000 OA
ATOM     10  H35 UNK     0      -4.264  -1.719  -1.490  0.00  0.00    +0.000 HD
ENDBRANCH   6   9
BRANCH   1  11
ATOM     11  O2  UNK     0      -4.488   0.705  -1.780  0.00  0.00    +0.000 OA
ATOM     12  H33 UNK     0      -4.083   1.330  -2.438  0.00  0.00    +0.000 HD
ENDBRANCH   1  11
BRANCH   1  13
ATOM     13  C16 UNK     0      -4.532   2.463  -0.165  0.00  0.00    +0.000 C 
ATOM     14  O6  UNK     0      -5.519   2.948  -0.782  0.00  0.00    +0.000 OA
BRANCH  13  15
ATOM     15  O5  UNK     0      -3.945   3.190   0.868  0.00  0.00    +0.000 OA
ATOM     16  H36 UNK     0      -4.285   4.113   1.112  0.00  0.00    +0.000 HD
ENDBRANCH  13  15
ENDBRANCH   1  13
BRANCH   2  17
ATOM     17  O1  UNK     0      -0.511  -0.329  -0.575  0.00  0.00    +0.000 OA
BRANCH  17  18
ATOM     18  C17 UNK     0       0.361  -1.220  -1.215  0.00  0.00    +0.000 C 
ATOM     19  O7  UNK     0      -0.082  -2.085  -2.019  0.00  0.00    +0.000 OA
BRANCH  18  20
ATOM     20  C18 UNK     0       1.809  -1.147  -0.971  0.00  0.00    +0.000 C 
ATOM     21  C19 UNK     0       2.338  -0.267  -0.111  0.00  0.00    +0.000 C 
BRANCH  21  22
ATOM     22  C20 UNK     0       3.791  -0.166   0.177  0.00  0.00    +0.000 A 
ATOM     23  C21 UNK     0       4.198   0.453   1.370  0.00  0.00    +0.000 A 
ATOM     24  C23 UNK     0       5.555   0.585   1.690  0.00  0.00    +0.000 A 
ATOM     25  C25 UNK     0       6.534   0.097   0.793  0.00  0.00    +0.000 A 
ATOM     26  C24 UNK     0       6.128  -0.504  -0.402  0.00  0.00    +0.000 A 
ATOM     27  C22 UNK     0       4.773  -0.633  -0.715  0.00  0.00    +0.000 A 
BRANCH  24  28
ATOM     28  O8  UNK     0       5.882   1.204   2.899  0.00  0.00    +0.000 OA
ATOM     29  H42 UNK     0       6.828   1.351   3.221  0.00  0.00    +0.000 HD
ENDBRANCH  24  28
BRANCH  25  30
ATOM     30  O9  UNK     0       7.904   0.191   1.046  0.00  0.00    +0.000 OA
ATOM     31  H43 UNK     0       8.298   0.604   1.879  0.00  0.00    +0.000 HD
ENDBRANCH  25  30
ENDBRANCH  21  22
ENDBRANCH  18  20
ENDBRANCH  17  18
ENDBRANCH   2  17
TORSDOF 11
