REMARK  Name = C:\Users\Maximilian\Desktop\Conformers\converted_pdb\conformers_pdb\Chlorogenic Acid_conf_16.pdb
REMARK  11 active torsions:
REMARK  status: ('A' for Active; 'I' for Inactive)
REMARK    1  A    between atoms: C10_1  and  O2_26
REMARK    2  A    between atoms: C10_1  and  C16_28
REMARK    3  A    between atoms: C11_2  and  O1_7
REMARK    4  A    between atoms: C14_5  and  O3_22
REMARK    5  A    between atoms: C15_6  and  O4_24
REMARK    6  A    between atoms: O1_7  and  C17_8
REMARK    7  A    between atoms: C17_8  and  C18_10
REMARK    8  A    between atoms: C19_11  and  C20_12
REMARK    9  A    between atoms: C23_14  and  O8_18
REMARK   10  A    between atoms: C25_15  and  O9_20
REMARK   11  A    between atoms: C16_28  and  O5_30
REMARK                            x       y       z     vdW  Elec       q    Type
REMARK                         _______ _______ _______ _____ _____    ______ ____
ROOT
ATOM      1  C10 UNK     0      -2.394   1.474  -0.414  0.00  0.00    +0.000 C 
ATOM      2  C11 UNK     0      -0.871   0.237   1.256  0.00  0.00    +0.000 C 
ATOM      3  C12 UNK     0      -1.586   0.178  -0.104  0.00  0.00    +0.000 C 
ATOM      4  C13 UNK     0      -1.703   2.749   0.162  0.00  0.00    +0.000 C 
ATOM      5  C14 UNK     0       0.121   1.436   1.343  0.00  0.00    +0.000 C 
ATOM      6  C15 UNK     0      -0.185   2.557   0.319  0.00  0.00    +0.000 C 
ENDROOT
BRANCH   5   7
ATOM      7  O3  UNK     0       0.085   1.972   2.644  0.00  0.00    +0.000 OA
ATOM      8  H34 UNK     0       0.829   1.558   3.155  0.00  0.00    +0.000 HD
ENDBRANCH   5   7
BRANCH   6   9
ATOM      9  O4  UNK     0       0.416   3.758   0.732  0.00  0.00    +0.000 OA
ATOM     10  H35 UNK     0       0.439   4.355  -0.061  0.00  0.00    +0.000 HD
ENDBRANCH   6   9
BRANCH   1  11
ATOM     11  O2  UNK     0      -3.691   1.370   0.128  0.00  0.00    +0.000 OA
ATOM     12  H33 UNK     0      -3.610   1.212   1.104  0.00  0.00    +0.000 HD
ENDBRANCH   1  11
BRANCH   1  13
ATOM     13  C16 UNK     0      -2.534   1.595  -1.915  0.00  0.00    +0.000 C 
ATOM     14  O6  UNK     0      -1.555   1.959  -2.622  0.00  0.00    +0.000 OA
BRANCH  13  15
ATOM     15  O5  UNK     0      -3.734   1.253  -2.534  0.00  0.00    +0.000 OA
ATOM     16  H36 UNK     0      -3.835   1.312  -3.540  0.00  0.00    +0.000 HD
ENDBRANCH  13  15
ENDBRANCH   1  13
BRANCH   2  17
ATOM     17  O1  UNK     0      -0.173  -0.995   1.437  0.00  0.00    +0.000 OA
BRANCH  17  18
ATOM     18  C17 UNK     0       0.309  -1.463   2.664  0.00  0.00    +0.000 C 
ATOM     19  O7  UNK     0      -0.006  -0.881   3.736  0.00  0.00    +0.000 OA
BRANCH  18  20
ATOM     20  C18 UNK     0       1.138  -2.684   2.728  0.00  0.00    +0.000 C 
ATOM     21  C19 UNK     0       1.728  -3.271   1.675  0.00  0.00    +0.000 C 
BRANCH  21  22
ATOM     22  C20 UNK     0       1.767  -2.705   0.312  0.00  0.00    +0.000 A 
ATOM     23  C21 UNK     0       2.314  -1.434   0.077  0.00  0.00    +0.000 A 
ATOM     24  C23 UNK     0       2.311  -0.879  -1.208  0.00  0.00    +0.000 A 
ATOM     25  C25 UNK     0       1.783  -1.628  -2.288  0.00  0.00    +0.000 A 
ATOM     26  C24 UNK     0       1.282  -2.914  -2.052  0.00  0.00    +0.000 A 
ATOM     27  C22 UNK     0       1.279  -3.453  -0.764  0.00  0.00    +0.000 A 
BRANCH  24  28
ATOM     28  O8  UNK     0       2.833   0.406  -1.365  0.00  0.00    +0.000 OA
ATOM     29  H42 UNK     0       2.870   0.897  -2.247  0.00  0.00    +0.000 HD
ENDBRANCH  24  28
BRANCH  25  30
ATOM     30  O9  UNK     0       1.740  -1.139  -3.595  0.00  0.00    +0.000 OA
ATOM     31  H43 UNK     0       2.070  -0.225  -3.866  0.00  0.00    +0.000 HD
ENDBRANCH  25  30
ENDBRANCH  21  22
ENDBRANCH  18  20
ENDBRANCH  17  18
ENDBRANCH   2  17
TORSDOF 11
