REMARK  Name = C:\Users\Maximilian\Desktop\Conformers\converted_pdb\conformers_pdb\Chlorogenic Acid_conf_25.pdb
REMARK  11 active torsions:
REMARK  status: ('A' for Active; 'I' for Inactive)
REMARK    1  A    between atoms: C10_1  and  O2_26
REMARK    2  A    between atoms: C10_1  and  C16_28
REMARK    3  A    between atoms: C11_2  and  O1_7
REMARK    4  A    between atoms: C14_5  and  O3_22
REMARK    5  A    between atoms: C15_6  and  O4_24
REMARK    6  A    between atoms: O1_7  and  C17_8
REMARK    7  A    between atoms: C17_8  and  C18_10
REMARK    8  A    between atoms: C19_11  and  C20_12
REMARK    9  A    between atoms: C23_14  and  O8_18
REMARK   10  A    between atoms: C25_15  and  O9_20
REMARK   11  A    between atoms: C16_28  and  O5_30
REMARK                            x       y       z     vdW  Elec       q    Type
REMARK                         _______ _______ _______ _____ _____    ______ ____
ROOT
ATOM      1  C10 UNK     0      -3.394   1.161  -0.059  0.00  0.00    +0.000 C 
ATOM      2  C11 UNK     0      -2.387  -1.052  -1.010  0.00  0.00    +0.000 C 
ATOM      3  C12 UNK     0      -3.033   0.320  -1.319  0.00  0.00    +0.000 C 
ATOM      4  C13 UNK     0      -2.477   0.778   1.131  0.00  0.00    +0.000 C 
ATOM      5  C14 UNK     0      -2.917  -1.643   0.315  0.00  0.00    +0.000 C 
ATOM      6  C15 UNK     0      -2.597  -0.715   1.521  0.00  0.00    +0.000 C 
ENDROOT
BRANCH   5   7
ATOM      7  O3  UNK     0      -4.303  -1.862   0.218  0.00  0.00    +0.000 OA
ATOM      8  H34 UNK     0      -4.431  -2.651  -0.371  0.00  0.00    +0.000 HD
ENDBRANCH   5   7
BRANCH   6   9
ATOM      9  O4  UNK     0      -3.568  -0.859   2.526  0.00  0.00    +0.000 OA
ATOM     10  H35 UNK     0      -3.428  -1.753   2.933  0.00  0.00    +0.000 HD
ENDBRANCH   6   9
BRANCH   1  11
ATOM     11  O2  UNK     0      -4.738   0.903   0.282  0.00  0.00    +0.000 OA
ATOM     12  H33 UNK     0      -4.956   1.430   1.096  0.00  0.00    +0.000 HD
ENDBRANCH   1  11
BRANCH   1  13
ATOM     13  C16 UNK     0      -3.244   2.632  -0.391  0.00  0.00    +0.000 C 
ATOM     14  O6  UNK     0      -2.106   3.176  -0.391  0.00  0.00    +0.000 OA
BRANCH  13  15
ATOM     15  O5  UNK     0      -4.360   3.378  -0.764  0.00  0.00    +0.000 OA
ATOM     16  H36 UNK     0      -4.272   4.357  -1.011  0.00  0.00    +0.000 HD
ENDBRANCH  13  15
ENDBRANCH   1  13
BRANCH   2  17
ATOM     17  O1  UNK     0      -0.967  -0.895  -0.945  0.00  0.00    +0.000 OA
BRANCH  17  18
ATOM     18  C17 UNK     0      -0.060  -1.960  -1.020  0.00  0.00    +0.000 C 
ATOM     19  O7  UNK     0      -0.464  -3.130  -1.260  0.00  0.00    +0.000 OA
BRANCH  18  20
ATOM     20  C18 UNK     0       1.378  -1.723  -0.826  0.00  0.00    +0.000 C 
ATOM     21  C19 UNK     0       1.858  -0.510  -0.517  0.00  0.00    +0.000 C 
BRANCH  21  22
ATOM     22  C20 UNK     0       3.297  -0.225  -0.294  0.00  0.00    +0.000 A 
ATOM     23  C21 UNK     0       3.649   0.926   0.431  0.00  0.00    +0.000 A 
ATOM     24  C23 UNK     0       4.992   1.246   0.661  0.00  0.00    +0.000 A 
ATOM     25  C25 UNK     0       6.005   0.415   0.155  0.00  0.00    +0.000 A 
ATOM     26  C24 UNK     0       5.663  -0.725  -0.582  0.00  0.00    +0.000 A 
ATOM     27  C22 UNK     0       4.321  -1.043  -0.811  0.00  0.00    +0.000 A 
BRANCH  24  28
ATOM     28  O8  UNK     0       5.299   2.392   1.395  0.00  0.00    +0.000 OA
ATOM     29  H42 UNK     0       6.255   2.667   1.589  0.00  0.00    +0.000 HD
ENDBRANCH  24  28
BRANCH  25  30
ATOM     30  O9  UNK     0       7.345   0.728   0.382  0.00  0.00    +0.000 OA
ATOM     31  H43 UNK     0       8.093   0.145   0.026  0.00  0.00    +0.000 HD
ENDBRANCH  25  30
ENDBRANCH  21  22
ENDBRANCH  18  20
ENDBRANCH  17  18
ENDBRANCH   2  17
TORSDOF 11
