REMARK  Name = C:\Users\Maximilian\Desktop\Conformers\converted_pdb\conformers_pdb\Chlorogenic Acid_conf_2.pdb
REMARK  11 active torsions:
REMARK  status: ('A' for Active; 'I' for Inactive)
REMARK    1  A    between atoms: C10_1  and  O2_26
REMARK    2  A    between atoms: C10_1  and  C16_28
REMARK    3  A    between atoms: C11_2  and  O1_7
REMARK    4  A    between atoms: C14_5  and  O3_22
REMARK    5  A    between atoms: C15_6  and  O4_24
REMARK    6  A    between atoms: O1_7  and  C17_8
REMARK    7  A    between atoms: C17_8  and  C18_10
REMARK    8  A    between atoms: C19_11  and  C20_12
REMARK    9  A    between atoms: C23_14  and  O8_18
REMARK   10  A    between atoms: C25_15  and  O9_20
REMARK   11  A    between atoms: C16_28  and  O5_30
REMARK                            x       y       z     vdW  Elec       q    Type
REMARK                         _______ _______ _______ _____ _____    ______ ____
ROOT
ATOM      1  C10 UNK     0      -4.365   0.928   0.600  0.00  0.00    +0.000 C 
ATOM      2  C11 UNK     0      -2.036   0.203  -0.180  0.00  0.00    +0.000 C 
ATOM      3  C12 UNK     0      -2.850   0.893   0.926  0.00  0.00    +0.000 C 
ATOM      4  C13 UNK     0      -4.886  -0.510   0.374  0.00  0.00    +0.000 C 
ATOM      5  C14 UNK     0      -2.548  -1.243  -0.393  0.00  0.00    +0.000 C 
ATOM      6  C15 UNK     0      -4.074  -1.307  -0.669  0.00  0.00    +0.000 C 
ENDROOT
BRANCH   5   7
ATOM      7  O3  UNK     0      -1.830  -1.903  -1.406  0.00  0.00    +0.000 OA
ATOM      8  H34 UNK     0      -1.929  -1.376  -2.241  0.00  0.00    +0.000 HD
ENDBRANCH   5   7
BRANCH   6   9
ATOM      9  O4  UNK     0      -4.413  -0.925  -1.981  0.00  0.00    +0.000 OA
ATOM     10  H35 UNK     0      -3.988  -0.053  -2.177  0.00  0.00    +0.000 HD
ENDBRANCH   6   9
BRANCH   1  11
ATOM     11  O2  UNK     0      -4.595   1.690  -0.564  0.00  0.00    +0.000 OA
ATOM     12  H33 UNK     0      -4.231   2.602  -0.411  0.00  0.00    +0.000 HD
ENDBRANCH   1  11
BRANCH   1  13
ATOM     13  C16 UNK     0      -5.132   1.536   1.758  0.00  0.00    +0.000 C 
ATOM     14  O6  UNK     0      -6.110   2.302   1.540  0.00  0.00    +0.000 OA
BRANCH  13  15
ATOM     15  O5  UNK     0      -4.806   1.200   3.070  0.00  0.00    +0.000 OA
ATOM     16  H36 UNK     0      -5.327   1.582   3.849  0.00  0.00    +0.000 HD
ENDBRANCH  13  15
ENDBRANCH   1  13
BRANCH   2  17
ATOM     17  O1  UNK     0      -0.666   0.180   0.225  0.00  0.00    +0.000 OA
BRANCH  17  18
ATOM     18  C17 UNK     0       0.414   0.137  -0.665  0.00  0.00    +0.000 C 
ATOM     19  O7  UNK     0       0.223   0.207  -1.910  0.00  0.00    +0.000 OA
BRANCH  18  20
ATOM     20  C18 UNK     0       1.776   0.025  -0.119  0.00  0.00    +0.000 C 
ATOM     21  C19 UNK     0       2.860  -0.046  -0.905  0.00  0.00    +0.000 C 
BRANCH  21  22
ATOM     22  C20 UNK     0       4.245  -0.173  -0.388  0.00  0.00    +0.000 A 
ATOM     23  C21 UNK     0       4.608   0.226   0.914  0.00  0.00    +0.000 A 
ATOM     24  C23 UNK     0       5.934   0.098   1.354  0.00  0.00    +0.000 A 
ATOM     25  C25 UNK     0       6.909  -0.423   0.495  0.00  0.00    +0.000 A 
ATOM     26  C24 UNK     0       6.557  -0.807  -0.805  0.00  0.00    +0.000 A 
ATOM     27  C22 UNK     0       5.238  -0.677  -1.244  0.00  0.00    +0.000 A 
BRANCH  24  28
ATOM     28  O8  UNK     0       6.291   0.490   2.643  0.00  0.00    +0.000 OA
ATOM     29  H42 UNK     0       5.610   0.871   3.290  0.00  0.00    +0.000 HD
ENDBRANCH  24  28
BRANCH  25  30
ATOM     30  O9  UNK     0       8.224  -0.552   0.938  0.00  0.00    +0.000 OA
ATOM     31  H43 UNK     0       8.951  -0.924   0.338  0.00  0.00    +0.000 HD
ENDBRANCH  25  30
ENDBRANCH  21  22
ENDBRANCH  18  20
ENDBRANCH  17  18
ENDBRANCH   2  17
TORSDOF 11
