REMARK  Name = C:\Users\Maximilian\Desktop\Conformers\converted_pdb\conformers_pdb\Chlorogenic Acid_conf_20.pdb
REMARK  11 active torsions:
REMARK  status: ('A' for Active; 'I' for Inactive)
REMARK    1  A    between atoms: C10_1  and  O2_26
REMARK    2  A    between atoms: C10_1  and  C16_28
REMARK    3  A    between atoms: C11_2  and  O1_7
REMARK    4  A    between atoms: C14_5  and  O3_22
REMARK    5  A    between atoms: C15_6  and  O4_24
REMARK    6  A    between atoms: O1_7  and  C17_8
REMARK    7  A    between atoms: C17_8  and  C18_10
REMARK    8  A    between atoms: C19_11  and  C20_12
REMARK    9  A    between atoms: C23_14  and  O8_18
REMARK   10  A    between atoms: C25_15  and  O9_20
REMARK   11  A    between atoms: C16_28  and  O5_30
REMARK                            x       y       z     vdW  Elec       q    Type
REMARK                         _______ _______ _______ _____ _____    ______ ____
ROOT
ATOM      1  C10 UNK     0      -4.437   0.047  -1.067  0.00  0.00    +0.000 C 
ATOM      2  C11 UNK     0      -2.111  -0.250  -0.044  0.00  0.00    +0.000 C 
ATOM      3  C12 UNK     0      -2.905   0.286  -1.243  0.00  0.00    +0.000 C 
ATOM      4  C13 UNK     0      -4.877   0.221   0.418  0.00  0.00    +0.000 C 
ATOM      5  C14 UNK     0      -2.494   0.494   1.268  0.00  0.00    +0.000 C 
ATOM      6  C15 UNK     0      -3.916   1.116   1.215  0.00  0.00    +0.000 C 
ENDROOT
BRANCH   5   7
ATOM      7  O3  UNK     0      -2.414  -0.402   2.349  0.00  0.00    +0.000 OA
ATOM      8  H34 UNK     0      -1.498  -0.330   2.723  0.00  0.00    +0.000 HD
ENDBRANCH   5   7
BRANCH   6   9
ATOM      9  O4  UNK     0      -4.425   1.307   2.511  0.00  0.00    +0.000 OA
ATOM     10  H35 UNK     0      -3.909   2.055   2.912  0.00  0.00    +0.000 HD
ENDBRANCH   6   9
BRANCH   1  11
ATOM     11  O2  UNK     0      -4.751  -1.276  -1.447  0.00  0.00    +0.000 OA
ATOM     12  H33 UNK     0      -4.478  -1.404  -2.394  0.00  0.00    +0.000 HD
ENDBRANCH   1  11
BRANCH   1  13
ATOM     13  C16 UNK     0      -5.205   1.028  -1.932  0.00  0.00    +0.000 C 
ATOM     14  O6  UNK     0      -6.041   0.617  -2.782  0.00  0.00    +0.000 OA
BRANCH  13  15
ATOM     15  O5  UNK     0      -5.014   2.398  -1.769  0.00  0.00    +0.000 OA
ATOM     16  H36 UNK     0      -5.529   3.065  -2.331  0.00  0.00    +0.000 HD
ENDBRANCH  13  15
ENDBRANCH   1  13
BRANCH   2  17
ATOM     17  O1  UNK     0      -0.716  -0.092  -0.311  0.00  0.00    +0.000 OA
BRANCH  17  18
ATOM     18  C17 UNK     0       0.285  -0.854   0.301  0.00  0.00    +0.000 C 
ATOM     19  O7  UNK     0      -0.015  -1.807   1.072  0.00  0.00    +0.000 OA
BRANCH  18  20
ATOM     20  C18 UNK     0       1.693  -0.531   0.019  0.00  0.00    +0.000 C 
ATOM     21  C19 UNK     0       2.709  -1.228   0.547  0.00  0.00    +0.000 C 
BRANCH  21  22
ATOM     22  C20 UNK     0       4.138  -0.936   0.276  0.00  0.00    +0.000 A 
ATOM     23  C21 UNK     0       4.584   0.327  -0.161  0.00  0.00    +0.000 A 
ATOM     24  C23 UNK     0       5.945   0.562  -0.394  0.00  0.00    +0.000 A 
ATOM     25  C25 UNK     0       6.879  -0.466  -0.185  0.00  0.00    +0.000 A 
ATOM     26  C24 UNK     0       6.442  -1.719   0.264  0.00  0.00    +0.000 A 
ATOM     27  C22 UNK     0       5.084  -1.950   0.497  0.00  0.00    +0.000 A 
BRANCH  24  28
ATOM     28  O8  UNK     0       6.349   1.824  -0.828  0.00  0.00    +0.000 OA
ATOM     29  H42 UNK     0       7.321   2.045  -1.009  0.00  0.00    +0.000 HD
ENDBRANCH  24  28
BRANCH  25  30
ATOM     30  O9  UNK     0       8.234  -0.239  -0.419  0.00  0.00    +0.000 OA
ATOM     31  H43 UNK     0       8.926  -0.964  -0.274  0.00  0.00    +0.000 HD
ENDBRANCH  25  30
ENDBRANCH  21  22
ENDBRANCH  18  20
ENDBRANCH  17  18
ENDBRANCH   2  17
TORSDOF 11
