REMARK  Name = C:\Users\Maximilian\Desktop\Conformers\converted_pdb\conformers_pdb\Chlorogenic Acid_conf_19.pdb
REMARK  11 active torsions:
REMARK  status: ('A' for Active; 'I' for Inactive)
REMARK    1  A    between atoms: C10_1  and  O2_26
REMARK    2  A    between atoms: C10_1  and  C16_28
REMARK    3  A    between atoms: C11_2  and  O1_7
REMARK    4  A    between atoms: C14_5  and  O3_22
REMARK    5  A    between atoms: C15_6  and  O4_24
REMARK    6  A    between atoms: O1_7  and  C17_8
REMARK    7  A    between atoms: C17_8  and  C18_10
REMARK    8  A    between atoms: C19_11  and  C20_12
REMARK    9  A    between atoms: C23_14  and  O8_18
REMARK   10  A    between atoms: C25_15  and  O9_20
REMARK   11  A    between atoms: C16_28  and  O5_30
REMARK                            x       y       z     vdW  Elec       q    Type
REMARK                         _______ _______ _______ _____ _____    ______ ____
ROOT
ATOM      1  C10 UNK     0      -4.188  -0.927  -0.475  0.00  0.00    +0.000 C 
ATOM      2  C11 UNK     0      -2.125   0.283   0.528  0.00  0.00    +0.000 C 
ATOM      3  C12 UNK     0      -2.665  -0.634  -0.590  0.00  0.00    +0.000 C 
ATOM      4  C13 UNK     0      -4.998   0.383  -0.274  0.00  0.00    +0.000 C 
ATOM      5  C14 UNK     0      -2.944   1.585   0.604  0.00  0.00    +0.000 C 
ATOM      6  C15 UNK     0      -4.440   1.295   0.832  0.00  0.00    +0.000 C 
ENDROOT
BRANCH   5   7
ATOM      7  O3  UNK     0      -2.464   2.395   1.648  0.00  0.00    +0.000 OA
ATOM      8  H34 UNK     0      -1.657   2.861   1.307  0.00  0.00    +0.000 HD
ENDBRANCH   5   7
BRANCH   6   9
ATOM      9  O4  UNK     0      -4.658   0.714   2.093  0.00  0.00    +0.000 OA
ATOM     10  H35 UNK     0      -4.644   1.449   2.760  0.00  0.00    +0.000 HD
ENDBRANCH   6   9
BRANCH   1  11
ATOM     11  O2  UNK     0      -4.456  -1.827   0.579  0.00  0.00    +0.000 OA
ATOM     12  H33 UNK     0      -3.970  -1.541   1.391  0.00  0.00    +0.000 HD
ENDBRANCH   1  11
BRANCH   1  13
ATOM     13  C16 UNK     0      -4.649  -1.589  -1.756  0.00  0.00    +0.000 C 
ATOM     14  O6  UNK     0      -4.549  -0.984  -2.859  0.00  0.00    +0.000 OA
BRANCH  13  15
ATOM     15  O5  UNK     0      -5.182  -2.875  -1.729  0.00  0.00    +0.000 OA
ATOM     16  H36 UNK     0      -5.491  -3.328  -2.580  0.00  0.00    +0.000 HD
ENDBRANCH  13  15
ENDBRANCH   1  13
BRANCH   2  17
ATOM     17  O1  UNK     0      -0.761   0.611   0.257  0.00  0.00    +0.000 OA
BRANCH  17  18
ATOM     18  C17 UNK     0       0.303  -0.277   0.450  0.00  0.00    +0.000 C 
ATOM     19  O7  UNK     0       0.100  -1.425   0.933  0.00  0.00    +0.000 OA
BRANCH  18  20
ATOM     20  C18 UNK     0       1.662   0.157   0.085  0.00  0.00    +0.000 C 
ATOM     21  C19 UNK     0       2.736  -0.627   0.261  0.00  0.00    +0.000 C 
BRANCH  21  22
ATOM     22  C20 UNK     0       4.120  -0.218  -0.085  0.00  0.00    +0.000 A 
ATOM     23  C21 UNK     0       5.192  -0.895   0.519  0.00  0.00    +0.000 A 
ATOM     24  C23 UNK     0       6.519  -0.559   0.224  0.00  0.00    +0.000 A 
ATOM     25  C25 UNK     0       6.786   0.473  -0.705  0.00  0.00    +0.000 A 
ATOM     26  C24 UNK     0       5.719   1.136  -1.319  0.00  0.00    +0.000 A 
ATOM     27  C22 UNK     0       4.399   0.796  -1.020  0.00  0.00    +0.000 A 
BRANCH  24  28
ATOM     28  O8  UNK     0       7.531  -1.272   0.871  0.00  0.00    +0.000 OA
ATOM     29  H42 UNK     0       8.517  -1.110   0.726  0.00  0.00    +0.000 HD
ENDBRANCH  24  28
BRANCH  25  30
ATOM     30  O9  UNK     0       8.082   0.864  -1.047  0.00  0.00    +0.000 OA
ATOM     31  H43 UNK     0       8.918   0.451  -0.659  0.00  0.00    +0.000 HD
ENDBRANCH  25  30
ENDBRANCH  21  22
ENDBRANCH  18  20
ENDBRANCH  17  18
ENDBRANCH   2  17
TORSDOF 11
