REMARK  Name = C:\Users\Maximilian\Desktop\Conformers\converted_pdb\conformers_pdb\Chlorogenic Acid_conf_18.pdb
REMARK  11 active torsions:
REMARK  status: ('A' for Active; 'I' for Inactive)
REMARK    1  A    between atoms: C10_1  and  O2_26
REMARK    2  A    between atoms: C10_1  and  C16_28
REMARK    3  A    between atoms: C11_2  and  O1_7
REMARK    4  A    between atoms: C14_5  and  O3_22
REMARK    5  A    between atoms: C15_6  and  O4_24
REMARK    6  A    between atoms: O1_7  and  C17_8
REMARK    7  A    between atoms: C17_8  and  C18_10
REMARK    8  A    between atoms: C19_11  and  C20_12
REMARK    9  A    between atoms: C23_14  and  O8_18
REMARK   10  A    between atoms: C25_15  and  O9_20
REMARK   11  A    between atoms: C16_28  and  O5_30
REMARK                            x       y       z     vdW  Elec       q    Type
REMARK                         _______ _______ _______ _____ _____    ______ ____
ROOT
ATOM      1  C10 UNK     0      -2.844  -1.691  -0.261  0.00  0.00    +0.000 C 
ATOM      2  C11 UNK     0      -2.288  -0.448   1.946  0.00  0.00    +0.000 C 
ATOM      3  C12 UNK     0      -2.693  -1.784   1.285  0.00  0.00    +0.000 C 
ATOM      4  C13 UNK     0      -3.798  -0.522  -0.612  0.00  0.00    +0.000 C 
ATOM      5  C14 UNK     0      -3.269   0.677   1.565  0.00  0.00    +0.000 C 
ATOM      6  C15 UNK     0      -3.382   0.813   0.033  0.00  0.00    +0.000 C 
ENDROOT
BRANCH   5   7
ATOM      7  O3  UNK     0      -4.538   0.426   2.116  0.00  0.00    +0.000 OA
ATOM      8  H34 UNK     0      -4.477   0.632   3.085  0.00  0.00    +0.000 HD
ENDBRANCH   5   7
BRANCH   6   9
ATOM      9  O4  UNK     0      -4.333   1.793  -0.293  0.00  0.00    +0.000 OA
ATOM     10  H35 UNK     0      -3.919   2.673  -0.093  0.00  0.00    +0.000 HD
ENDBRANCH   6   9
BRANCH   1  11
ATOM     11  O2  UNK     0      -3.445  -2.873  -0.738  0.00  0.00    +0.000 OA
ATOM     12  H33 UNK     0      -2.879  -3.642  -0.462  0.00  0.00    +0.000 HD
ENDBRANCH   1  11
BRANCH   1  13
ATOM     13  C16 UNK     0      -1.492  -1.537  -0.943  0.00  0.00    +0.000 C 
ATOM     14  O6  UNK     0      -0.537  -2.296  -0.622  0.00  0.00    +0.000 OA
BRANCH  13  15
ATOM     15  O5  UNK     0      -1.308  -0.615  -1.971  0.00  0.00    +0.000 OA
ATOM     16  H36 UNK     0      -0.410  -0.524  -2.433  0.00  0.00    +0.000 HD
ENDBRANCH  13  15
ENDBRANCH   1  13
BRANCH   2  17
ATOM     17  O1  UNK     0      -0.966  -0.071   1.558  0.00  0.00    +0.000 OA
BRANCH  17  18
ATOM     18  C17 UNK     0       0.194  -0.675   2.056  0.00  0.00    +0.000 C 
ATOM     19  O7  UNK     0       0.130  -1.497   3.010  0.00  0.00    +0.000 OA
BRANCH  18  20
ATOM     20  C18 UNK     0       1.504  -0.359   1.466  0.00  0.00    +0.000 C 
ATOM     21  C19 UNK     0       1.617   0.428   0.387  0.00  0.00    +0.000 C 
BRANCH  21  22
ATOM     22  C20 UNK     0       2.909   0.743  -0.269  0.00  0.00    +0.000 A 
ATOM     23  C21 UNK     0       4.142   0.670   0.410  0.00  0.00    +0.000 A 
ATOM     24  C23 UNK     0       5.339   0.988  -0.249  0.00  0.00    +0.000 A 
ATOM     25  C25 UNK     0       5.311   1.391  -1.594  0.00  0.00    +0.000 A 
ATOM     26  C24 UNK     0       4.088   1.479  -2.266  0.00  0.00    +0.000 A 
ATOM     27  C22 UNK     0       2.897   1.164  -1.608  0.00  0.00    +0.000 A 
BRANCH  24  28
ATOM     28  O8  UNK     0       6.554   0.910   0.430  0.00  0.00    +0.000 OA
ATOM     29  H42 UNK     0       6.603   0.623   1.401  0.00  0.00    +0.000 HD
ENDBRANCH  24  28
BRANCH  25  30
ATOM     30  O9  UNK     0       6.484   1.710  -2.277  0.00  0.00    +0.000 OA
ATOM     31  H43 UNK     0       7.394   1.662  -1.835  0.00  0.00    +0.000 HD
ENDBRANCH  25  30
ENDBRANCH  21  22
ENDBRANCH  18  20
ENDBRANCH  17  18
ENDBRANCH   2  17
TORSDOF 11
