REMARK  Name = C:\Users\Maximilian\Desktop\Conformers\converted_pdb\conformers_pdb\Chlorogenic Acid_conf_1.pdb
REMARK  11 active torsions:
REMARK  status: ('A' for Active; 'I' for Inactive)
REMARK    1  A    between atoms: C10_1  and  O2_26
REMARK    2  A    between atoms: C10_1  and  C16_28
REMARK    3  A    between atoms: C11_2  and  O1_7
REMARK    4  A    between atoms: C14_5  and  O3_22
REMARK    5  A    between atoms: C15_6  and  O4_24
REMARK    6  A    between atoms: O1_7  and  C17_8
REMARK    7  A    between atoms: C17_8  and  C18_10
REMARK    8  A    between atoms: C19_11  and  C20_12
REMARK    9  A    between atoms: C23_14  and  O8_18
REMARK   10  A    between atoms: C25_15  and  O9_20
REMARK   11  A    between atoms: C16_28  and  O5_30
REMARK                            x       y       z     vdW  Elec       q    Type
REMARK                         _______ _______ _______ _____ _____    ______ ____
ROOT
ATOM      1  C10 UNK     0      -4.121  -0.248   0.708  0.00  0.00    +0.000 C 
ATOM      2  C11 UNK     0      -1.933   0.972   0.149  0.00  0.00    +0.000 C 
ATOM      3  C12 UNK     0      -2.640  -0.035   1.086  0.00  0.00    +0.000 C 
ATOM      4  C13 UNK     0      -4.238  -0.816  -0.746  0.00  0.00    +0.000 C 
ATOM      5  C14 UNK     0      -2.415   0.877  -1.327  0.00  0.00    +0.000 C 
ATOM      6  C15 UNK     0      -3.014  -0.512  -1.638  0.00  0.00    +0.000 C 
ENDROOT
BRANCH   5   7
ATOM      7  O3  UNK     0      -3.368   1.881  -1.574  0.00  0.00    +0.000 OA
ATOM      8  H34 UNK     0      -3.397   2.022  -2.556  0.00  0.00    +0.000 HD
ENDBRANCH   5   7
BRANCH   6   9
ATOM      9  O4  UNK     0      -3.392  -0.594  -2.988  0.00  0.00    +0.000 OA
ATOM     10  H35 UNK     0      -2.554  -0.666  -3.517  0.00  0.00    +0.000 HD
ENDBRANCH   6   9
BRANCH   1  11
ATOM     11  O2  UNK     0      -4.771   1.002   0.793  0.00  0.00    +0.000 OA
ATOM     12  H33 UNK     0      -5.728   0.872   0.559  0.00  0.00    +0.000 HD
ENDBRANCH   1  11
BRANCH   1  13
ATOM     13  C16 UNK     0      -4.741  -1.208   1.706  0.00  0.00    +0.000 C 
ATOM     14  O6  UNK     0      -4.326  -2.397   1.785  0.00  0.00    +0.000 OA
BRANCH  13  15
ATOM     15  O5  UNK     0      -5.750  -0.778   2.564  0.00  0.00    +0.000 OA
ATOM     16  H36 UNK     0      -6.162  -1.410   3.240  0.00  0.00    +0.000 HD
ENDBRANCH  13  15
ENDBRANCH   1  13
BRANCH   2  17
ATOM     17  O1  UNK     0      -0.524   0.745   0.229  0.00  0.00    +0.000 OA
BRANCH  17  18
ATOM     18  C17 UNK     0       0.437   1.684  -0.167  0.00  0.00    +0.000 C 
ATOM     19  O7  UNK     0       0.086   2.819  -0.589  0.00  0.00    +0.000 OA
BRANCH  18  20
ATOM     20  C18 UNK     0       1.870   1.360  -0.092  0.00  0.00    +0.000 C 
ATOM     21  C19 UNK     0       2.304   0.161   0.319  0.00  0.00    +0.000 C 
BRANCH  21  22
ATOM     22  C20 UNK     0       3.737  -0.215   0.398  0.00  0.00    +0.000 A 
ATOM     23  C21 UNK     0       4.767   0.741   0.505  0.00  0.00    +0.000 A 
ATOM     24  C23 UNK     0       6.108   0.338   0.589  0.00  0.00    +0.000 A 
ATOM     25  C25 UNK     0       6.430  -1.029   0.573  0.00  0.00    +0.000 A 
ATOM     26  C24 UNK     0       5.410  -1.980   0.483  0.00  0.00    +0.000 A 
ATOM     27  C22 UNK     0       4.074  -1.578   0.401  0.00  0.00    +0.000 A 
BRANCH  24  28
ATOM     28  O8  UNK     0       7.121   1.291   0.692  0.00  0.00    +0.000 OA
ATOM     29  H42 UNK     0       6.917   2.284   0.706  0.00  0.00    +0.000 HD
ENDBRANCH  24  28
BRANCH  25  30
ATOM     30  O9  UNK     0       7.754  -1.460   0.651  0.00  0.00    +0.000 OA
ATOM     31  H43 UNK     0       8.528  -0.811   0.719  0.00  0.00    +0.000 HD
ENDBRANCH  25  30
ENDBRANCH  21  22
ENDBRANCH  18  20
ENDBRANCH  17  18
ENDBRANCH   2  17
TORSDOF 11
