REMARK  Name = C:\Users\Maximilian\Desktop\Conformers\converted_pdb\conformers_pdb\Chlorogenic Acid_conf_5.pdb
REMARK  11 active torsions:
REMARK  status: ('A' for Active; 'I' for Inactive)
REMARK    1  A    between atoms: C10_1  and  O2_26
REMARK    2  A    between atoms: C10_1  and  C16_28
REMARK    3  A    between atoms: C11_2  and  O1_7
REMARK    4  A    between atoms: C14_5  and  O3_22
REMARK    5  A    between atoms: C15_6  and  O4_24
REMARK    6  A    between atoms: O1_7  and  C17_8
REMARK    7  A    between atoms: C17_8  and  C18_10
REMARK    8  A    between atoms: C19_11  and  C20_12
REMARK    9  A    between atoms: C23_14  and  O8_18
REMARK   10  A    between atoms: C25_15  and  O9_20
REMARK   11  A    between atoms: C16_28  and  O5_30
REMARK                            x       y       z     vdW  Elec       q    Type
REMARK                         _______ _______ _______ _____ _____    ______ ____
ROOT
ATOM      1  C10 UNK     0      -3.998   1.062  -0.409  0.00  0.00    +0.000 C 
ATOM      2  C11 UNK     0      -1.885  -0.376  -0.440  0.00  0.00    +0.000 C 
ATOM      3  C12 UNK     0      -2.455   1.053  -0.400  0.00  0.00    +0.000 C 
ATOM      4  C13 UNK     0      -4.530   0.210   0.775  0.00  0.00    +0.000 C 
ATOM      5  C14 UNK     0      -2.420  -1.203   0.749  0.00  0.00    +0.000 C 
ATOM      6  C15 UNK     0      -3.962  -1.223   0.769  0.00  0.00    +0.000 C 
ENDROOT
BRANCH   5   7
ATOM      7  O3  UNK     0      -1.930  -2.516   0.671  0.00  0.00    +0.000 OA
ATOM      8  H34 UNK     0      -2.049  -2.922   1.569  0.00  0.00    +0.000 HD
ENDBRANCH   5   7
BRANCH   6   9
ATOM      9  O4  UNK     0      -4.447  -1.945  -0.336  0.00  0.00    +0.000 OA
ATOM     10  H35 UNK     0      -5.398  -2.155  -0.146  0.00  0.00    +0.000 HD
ENDBRANCH   6   9
BRANCH   1  11
ATOM     11  O2  UNK     0      -4.443   0.526  -1.635  0.00  0.00    +0.000 OA
ATOM     12  H33 UNK     0      -5.436   0.512  -1.619  0.00  0.00    +0.000 HD
ENDBRANCH   1  11
BRANCH   1  13
ATOM     13  C16 UNK     0      -4.473   2.495  -0.285  0.00  0.00    +0.000 C 
ATOM     14  O6  UNK     0      -4.407   3.097   0.821  0.00  0.00    +0.000 OA
BRANCH  13  15
ATOM     15  O5  UNK     0      -4.933   3.177  -1.409  0.00  0.00    +0.000 OA
ATOM     16  H36 UNK     0      -5.235   4.142  -1.345  0.00  0.00    +0.000 HD
ENDBRANCH  13  15
ENDBRANCH   1  13
BRANCH   2  17
ATOM     17  O1  UNK     0      -0.460  -0.291  -0.378  0.00  0.00    +0.000 OA
BRANCH  17  18
ATOM     18  C17 UNK     0       0.405  -1.270  -0.885  0.00  0.00    +0.000 C 
ATOM     19  O7  UNK     0      -0.049  -2.266  -1.509  0.00  0.00    +0.000 OA
BRANCH  18  20
ATOM     20  C18 UNK     0       1.860  -1.141  -0.708  0.00  0.00    +0.000 C 
ATOM     21  C19 UNK     0       2.402  -0.118  -0.032  0.00  0.00    +0.000 C 
BRANCH  21  22
ATOM     22  C20 UNK     0       3.861   0.046   0.183  0.00  0.00    +0.000 A 
ATOM     23  C21 UNK     0       4.823  -0.553  -0.654  0.00  0.00    +0.000 A 
ATOM     24  C23 UNK     0       6.193  -0.361  -0.418  0.00  0.00    +0.000 A 
ATOM     25  C25 UNK     0       6.611   0.442   0.656  0.00  0.00    +0.000 A 
ATOM     26  C24 UNK     0       5.659   1.050   1.478  0.00  0.00    +0.000 A 
ATOM     27  C22 UNK     0       4.296   0.859   1.242  0.00  0.00    +0.000 A 
BRANCH  24  28
ATOM     28  O8  UNK     0       7.138  -0.960  -1.250  0.00  0.00    +0.000 OA
ATOM     29  H42 UNK     0       6.864  -1.543  -2.032  0.00  0.00    +0.000 HD
ENDBRANCH  24  28
BRANCH  25  30
ATOM     30  O9  UNK     0       7.965   0.649   0.917  0.00  0.00    +0.000 OA
ATOM     31  H43 UNK     0       8.693   0.232   0.350  0.00  0.00    +0.000 HD
ENDBRANCH  25  30
ENDBRANCH  21  22
ENDBRANCH  18  20
ENDBRANCH  17  18
ENDBRANCH   2  17
TORSDOF 11
