REMARK  Name = C:\Users\Maximilian\Desktop\Conformers\converted_pdb\conformers_pdb\Chlorogenic Acid_conf_32.pdb
REMARK  11 active torsions:
REMARK  status: ('A' for Active; 'I' for Inactive)
REMARK    1  A    between atoms: C10_1  and  O2_26
REMARK    2  A    between atoms: C10_1  and  C16_28
REMARK    3  A    between atoms: C11_2  and  O1_7
REMARK    4  A    between atoms: C14_5  and  O3_22
REMARK    5  A    between atoms: C15_6  and  O4_24
REMARK    6  A    between atoms: O1_7  and  C17_8
REMARK    7  A    between atoms: C17_8  and  C18_10
REMARK    8  A    between atoms: C19_11  and  C20_12
REMARK    9  A    between atoms: C23_14  and  O8_18
REMARK   10  A    between atoms: C25_15  and  O9_20
REMARK   11  A    between atoms: C16_28  and  O5_30
REMARK                            x       y       z     vdW  Elec       q    Type
REMARK                         _______ _______ _______ _____ _____    ______ ____
ROOT
ATOM      1  C10 UNK     0      -3.431   1.172  -0.013  0.00  0.00    +0.000 C 
ATOM      2  C11 UNK     0      -1.573  -0.514  -0.582  0.00  0.00    +0.000 C 
ATOM      3  C12 UNK     0      -2.024   0.635   0.355  0.00  0.00    +0.000 C 
ATOM      4  C13 UNK     0      -4.492   0.042   0.127  0.00  0.00    +0.000 C 
ATOM      5  C14 UNK     0      -2.748  -1.426  -1.037  0.00  0.00    +0.000 C 
ATOM      6  C15 UNK     0      -3.919  -1.386  -0.036  0.00  0.00    +0.000 C 
ENDROOT
BRANCH   5   7
ATOM      7  O3  UNK     0      -3.209  -1.040  -2.308  0.00  0.00    +0.000 OA
ATOM      8  H34 UNK     0      -2.541  -1.366  -2.967  0.00  0.00    +0.000 HD
ENDBRANCH   5   7
BRANCH   6   9
ATOM      9  O4  UNK     0      -4.944  -2.252  -0.451  0.00  0.00    +0.000 OA
ATOM     10  H35 UNK     0      -4.632  -3.176  -0.267  0.00  0.00    +0.000 HD
ENDBRANCH   6   9
BRANCH   1  11
ATOM     11  O2  UNK     0      -3.427   1.620  -1.350  0.00  0.00    +0.000 OA
ATOM     12  H33 UNK     0      -2.734   2.327  -1.436  0.00  0.00    +0.000 HD
ENDBRANCH   1  11
BRANCH   1  13
ATOM     13  C16 UNK     0      -3.814   2.324   0.893  0.00  0.00    +0.000 C 
ATOM     14  O6  UNK     0      -3.545   2.287   2.125  0.00  0.00    +0.000 OA
BRANCH  13  15
ATOM     15  O5  UNK     0      -4.527   3.404   0.380  0.00  0.00    +0.000 OA
ATOM     16  H36 UNK     0      -4.811   4.171   0.978  0.00  0.00    +0.000 HD
ENDBRANCH  13  15
ENDBRANCH   1  13
BRANCH   2  17
ATOM     17  O1  UNK     0      -0.594  -1.316   0.083  0.00  0.00    +0.000 OA
BRANCH  17  18
ATOM     18  C17 UNK     0       0.719  -0.896   0.323  0.00  0.00    +0.000 C 
ATOM     19  O7  UNK     0       1.103   0.245  -0.056  0.00  0.00    +0.000 OA
BRANCH  18  20
ATOM     20  C18 UNK     0       1.617  -1.790   1.077  0.00  0.00    +0.000 C 
ATOM     21  C19 UNK     0       2.955  -1.693   1.131  0.00  0.00    +0.000 C 
BRANCH  21  22
ATOM     22  C20 UNK     0       3.781  -0.789   0.303  0.00  0.00    +0.000 A 
ATOM     23  C21 UNK     0       4.808  -0.050   0.908  0.00  0.00    +0.000 A 
ATOM     24  C23 UNK     0       5.637   0.779   0.138  0.00  0.00    +0.000 A 
ATOM     25  C25 UNK     0       5.451   0.854  -1.253  0.00  0.00    +0.000 A 
ATOM     26  C24 UNK     0       4.447   0.094  -1.861  0.00  0.00    +0.000 A 
ATOM     27  C22 UNK     0       3.623  -0.732  -1.092  0.00  0.00    +0.000 A 
BRANCH  24  28
ATOM     28  O8  UNK     0       6.643   1.526   0.750  0.00  0.00    +0.000 OA
ATOM     29  H42 UNK     0       6.798   1.489   1.751  0.00  0.00    +0.000 HD
ENDBRANCH  24  28
BRANCH  25  30
ATOM     30  O9  UNK     0       6.257   1.671  -2.045  0.00  0.00    +0.000 OA
ATOM     31  H43 UNK     0       6.998   2.239  -1.653  0.00  0.00    +0.000 HD
ENDBRANCH  25  30
ENDBRANCH  21  22
ENDBRANCH  18  20
ENDBRANCH  17  18
ENDBRANCH   2  17
TORSDOF 11
