REMARK  Name = C:\Users\Maximilian\Desktop\Conformers\converted_pdb\conformers_pdb\Chlorogenic Acid_conf_27.pdb
REMARK  11 active torsions:
REMARK  status: ('A' for Active; 'I' for Inactive)
REMARK    1  A    between atoms: C10_1  and  O2_26
REMARK    2  A    between atoms: C10_1  and  C16_28
REMARK    3  A    between atoms: C11_2  and  O1_7
REMARK    4  A    between atoms: C14_5  and  O3_22
REMARK    5  A    between atoms: C15_6  and  O4_24
REMARK    6  A    between atoms: O1_7  and  C17_8
REMARK    7  A    between atoms: C17_8  and  C18_10
REMARK    8  A    between atoms: C19_11  and  C20_12
REMARK    9  A    between atoms: C23_14  and  O8_18
REMARK   10  A    between atoms: C25_15  and  O9_20
REMARK   11  A    between atoms: C16_28  and  O5_30
REMARK                            x       y       z     vdW  Elec       q    Type
REMARK                         _______ _______ _______ _____ _____    ______ ____
ROOT
ATOM      1  C10 UNK     0      -4.198  -0.486   0.295  0.00  0.00    +0.000 C 
ATOM      2  C11 UNK     0      -1.977   0.740  -0.034  0.00  0.00    +0.000 C 
ATOM      3  C12 UNK     0      -2.665  -0.522   0.521  0.00  0.00    +0.000 C 
ATOM      4  C13 UNK     0      -4.497  -0.298  -1.210  0.00  0.00    +0.000 C 
ATOM      5  C14 UNK     0      -2.277   0.891  -1.539  0.00  0.00    +0.000 C 
ATOM      6  C15 UNK     0      -3.797   0.938  -1.804  0.00  0.00    +0.000 C 
ENDROOT
BRANCH   5   7
ATOM      7  O3  UNK     0      -1.682   2.064  -2.033  0.00  0.00    +0.000 OA
ATOM      8  H34 UNK     0      -0.722   1.861  -2.185  0.00  0.00    +0.000 HD
ENDBRANCH   5   7
BRANCH   6   9
ATOM      9  O4  UNK     0      -4.362   2.109  -1.266  0.00  0.00    +0.000 OA
ATOM     10  H35 UNK     0      -4.189   2.840  -1.914  0.00  0.00    +0.000 HD
ENDBRANCH   6   9
BRANCH   1  11
ATOM     11  O2  UNK     0      -4.766   0.589   1.010  0.00  0.00    +0.000 OA
ATOM     12  H33 UNK     0      -4.545   0.469   1.971  0.00  0.00    +0.000 HD
ENDBRANCH   1  11
BRANCH   1  13
ATOM     13  C16 UNK     0      -4.826  -1.787   0.750  0.00  0.00    +0.000 C 
ATOM     14  O6  UNK     0      -5.935  -1.782   1.351  0.00  0.00    +0.000 OA
BRANCH  13  15
ATOM     15  O5  UNK     0      -4.216  -3.003   0.451  0.00  0.00    +0.000 OA
ATOM     16  H36 UNK     0      -4.639  -3.880   0.731  0.00  0.00    +0.000 HD
ENDBRANCH  13  15
ENDBRANCH   1  13
BRANCH   2  17
ATOM     17  O1  UNK     0      -0.565   0.639   0.150  0.00  0.00    +0.000 OA
BRANCH  17  18
ATOM     18  C17 UNK     0       0.073   0.828   1.383  0.00  0.00    +0.000 C 
ATOM     19  O7  UNK     0      -0.592   1.152   2.404  0.00  0.00    +0.000 OA
BRANCH  18  20
ATOM     20  C18 UNK     0       1.530   0.661   1.501  0.00  0.00    +0.000 C 
ATOM     21  C19 UNK     0       2.287   0.299   0.456  0.00  0.00    +0.000 C 
BRANCH  21  22
ATOM     22  C20 UNK     0       3.756   0.107   0.530  0.00  0.00    +0.000 A 
ATOM     23  C21 UNK     0       4.383  -0.670  -0.458  0.00  0.00    +0.000 A 
ATOM     24  C23 UNK     0       5.768  -0.879  -0.445  0.00  0.00    +0.000 A 
ATOM     25  C25 UNK     0       6.551  -0.290   0.574  0.00  0.00    +0.000 A 
ATOM     26  C24 UNK     0       5.930   0.498   1.548  0.00  0.00    +0.000 A 
ATOM     27  C22 UNK     0       4.549   0.701   1.529  0.00  0.00    +0.000 A 
BRANCH  24  28
ATOM     28  O8  UNK     0       6.317  -1.671  -1.456  0.00  0.00    +0.000 OA
ATOM     29  H42 UNK     0       7.301  -1.880  -1.538  0.00  0.00    +0.000 HD
ENDBRANCH  24  28
BRANCH  25  30
ATOM     30  O9  UNK     0       7.936  -0.455   0.653  0.00  0.00    +0.000 OA
ATOM     31  H43 UNK     0       8.477  -1.005   0.002  0.00  0.00    +0.000 HD
ENDBRANCH  25  30
ENDBRANCH  21  22
ENDBRANCH  18  20
ENDBRANCH  17  18
ENDBRANCH   2  17
TORSDOF 11
