REMARK  Name = C:\Users\Maximilian\Desktop\Conformers\converted_pdb\conformers_pdb\Chlorogenic Acid_conf_9.pdb
REMARK  11 active torsions:
REMARK  status: ('A' for Active; 'I' for Inactive)
REMARK    1  A    between atoms: C10_1  and  O2_26
REMARK    2  A    between atoms: C10_1  and  C16_28
REMARK    3  A    between atoms: C11_2  and  O1_7
REMARK    4  A    between atoms: C14_5  and  O3_22
REMARK    5  A    between atoms: C15_6  and  O4_24
REMARK    6  A    between atoms: O1_7  and  C17_8
REMARK    7  A    between atoms: C17_8  and  C18_10
REMARK    8  A    between atoms: C19_11  and  C20_12
REMARK    9  A    between atoms: C23_14  and  O8_18
REMARK   10  A    between atoms: C25_15  and  O9_20
REMARK   11  A    between atoms: C16_28  and  O5_30
REMARK                            x       y       z     vdW  Elec       q    Type
REMARK                         _______ _______ _______ _____ _____    ______ ____
ROOT
ATOM      1  C10 UNK     0      -3.792   1.232   0.182  0.00  0.00    +0.000 C 
ATOM      2  C11 UNK     0      -1.205   1.020   0.472  0.00  0.00    +0.000 C 
ATOM      3  C12 UNK     0      -2.596   0.996   1.151  0.00  0.00    +0.000 C 
ATOM      4  C13 UNK     0      -3.423   0.779  -1.253  0.00  0.00    +0.000 C 
ATOM      5  C14 UNK     0      -1.181   1.977  -0.741  0.00  0.00    +0.000 C 
ATOM      6  C15 UNK     0      -2.208   1.547  -1.827  0.00  0.00    +0.000 C 
ENDROOT
BRANCH   5   7
ATOM      7  O3  UNK     0      -1.439   3.292  -0.315  0.00  0.00    +0.000 OA
ATOM      8  H34 UNK     0      -0.623   3.610   0.153  0.00  0.00    +0.000 HD
ENDBRANCH   5   7
BRANCH   6   9
ATOM      9  O4  UNK     0      -2.659   2.664  -2.550  0.00  0.00    +0.000 OA
ATOM     10  H35 UNK     0      -1.900   2.965  -3.115  0.00  0.00    +0.000 HD
ENDBRANCH   6   9
BRANCH   1  11
ATOM     11  O2  UNK     0      -4.100   2.608   0.177  0.00  0.00    +0.000 OA
ATOM     12  H33 UNK     0      -4.853   2.752  -0.456  0.00  0.00    +0.000 HD
ENDBRANCH   1  11
BRANCH   1  13
ATOM     13  C16 UNK     0      -4.994   0.460   0.689  0.00  0.00    +0.000 C 
ATOM     14  O6  UNK     0      -5.101  -0.777   0.466  0.00  0.00    +0.000 OA
BRANCH  13  15
ATOM     15  O5  UNK     0      -5.956   1.102   1.465  0.00  0.00    +0.000 OA
ATOM     16  H36 UNK     0      -6.753   0.594   1.830  0.00  0.00    +0.000 HD
ENDBRANCH  13  15
ENDBRANCH   1  13
BRANCH   2  17
ATOM     17  O1  UNK     0      -0.860  -0.306   0.062  0.00  0.00    +0.000 OA
BRANCH  17  18
ATOM     18  C17 UNK     0       0.443  -0.709  -0.247  0.00  0.00    +0.000 C 
ATOM     19  O7  UNK     0       1.404   0.101  -0.143  0.00  0.00    +0.000 OA
BRANCH  18  20
ATOM     20  C18 UNK     0       0.655  -2.080  -0.750  0.00  0.00    +0.000 C 
ATOM     21  C19 UNK     0       1.832  -2.723  -0.801  0.00  0.00    +0.000 C 
BRANCH  21  22
ATOM     22  C20 UNK     0       3.094  -2.246  -0.199  0.00  0.00    +0.000 A 
ATOM     23  C21 UNK     0       3.147  -1.820   1.140  0.00  0.00    +0.000 A 
ATOM     24  C23 UNK     0       4.360  -1.416   1.710  0.00  0.00    +0.000 A 
ATOM     25  C25 UNK     0       5.539  -1.457   0.945  0.00  0.00    +0.000 A 
ATOM     26  C24 UNK     0       5.492  -1.911  -0.380  0.00  0.00    +0.000 A 
ATOM     27  C22 UNK     0       4.279  -2.314  -0.944  0.00  0.00    +0.000 A 
BRANCH  24  28
ATOM     28  O8  UNK     0       4.375  -0.983   3.035  0.00  0.00    +0.000 OA
ATOM     29  H42 UNK     0       5.226  -0.682   3.493  0.00  0.00    +0.000 HD
ENDBRANCH  24  28
BRANCH  25  30
ATOM     30  O9  UNK     0       6.750  -1.053   1.505  0.00  0.00    +0.000 OA
ATOM     31  H43 UNK     0       7.613  -1.074   0.975  0.00  0.00    +0.000 HD
ENDBRANCH  25  30
ENDBRANCH  21  22
ENDBRANCH  18  20
ENDBRANCH  17  18
ENDBRANCH   2  17
TORSDOF 11
