REMARK  Name = C:\Users\Maximilian\Desktop\Conformers\converted_pdb\conformers_pdb\Chlorogenic Acid_conf_36.pdb
REMARK  11 active torsions:
REMARK  status: ('A' for Active; 'I' for Inactive)
REMARK    1  A    between atoms: C10_1  and  O2_26
REMARK    2  A    between atoms: C10_1  and  C16_28
REMARK    3  A    between atoms: C11_2  and  O1_7
REMARK    4  A    between atoms: C14_5  and  O3_22
REMARK    5  A    between atoms: C15_6  and  O4_24
REMARK    6  A    between atoms: O1_7  and  C17_8
REMARK    7  A    between atoms: C17_8  and  C18_10
REMARK    8  A    between atoms: C19_11  and  C20_12
REMARK    9  A    between atoms: C23_14  and  O8_18
REMARK   10  A    between atoms: C25_15  and  O9_20
REMARK   11  A    between atoms: C16_28  and  O5_30
REMARK                            x       y       z     vdW  Elec       q    Type
REMARK                         _______ _______ _______ _____ _____    ______ ____
ROOT
ATOM      1  C10 UNK     0      -3.375   0.015   0.762  0.00  0.00    +0.000 C 
ATOM      2  C11 UNK     0      -1.945   1.833  -0.382  0.00  0.00    +0.000 C 
ATOM      3  C12 UNK     0      -2.773   1.432   0.860  0.00  0.00    +0.000 C 
ATOM      4  C13 UNK     0      -4.318  -0.084  -0.485  0.00  0.00    +0.000 C 
ATOM      5  C14 UNK     0      -2.520   1.262  -1.708  0.00  0.00    +0.000 C 
ATOM      6  C15 UNK     0      -4.023   0.942  -1.608  0.00  0.00    +0.000 C 
ENDROOT
BRANCH   5   7
ATOM      7  O3  UNK     0      -2.298   2.184  -2.746  0.00  0.00    +0.000 OA
ATOM      8  H34 UNK     0      -2.390   1.686  -3.600  0.00  0.00    +0.000 HD
ENDBRANCH   5   7
BRANCH   6   9
ATOM      9  O4  UNK     0      -4.740   2.132  -1.385  0.00  0.00    +0.000 OA
ATOM     10  H35 UNK     0      -5.680   1.956  -1.651  0.00  0.00    +0.000 HD
ENDBRANCH   6   9
BRANCH   1  11
ATOM     11  O2  UNK     0      -4.137  -0.201   1.927  0.00  0.00    +0.000 OA
ATOM     12  H33 UNK     0      -4.525  -1.114   1.871  0.00  0.00    +0.000 HD
ENDBRANCH   1  11
BRANCH   1  13
ATOM     13  C16 UNK     0      -2.246  -1.005   0.739  0.00  0.00    +0.000 C 
ATOM     14  O6  UNK     0      -1.970  -1.657  -0.304  0.00  0.00    +0.000 OA
BRANCH  13  15
ATOM     15  O5  UNK     0      -1.481  -1.199   1.885  0.00  0.00    +0.000 OA
ATOM     16  H36 UNK     0      -0.712  -1.858   1.892  0.00  0.00    +0.000 HD
ENDBRANCH  13  15
ENDBRANCH   1  13
BRANCH   2  17
ATOM     17  O1  UNK     0      -0.602   1.380  -0.199  0.00  0.00    +0.000 OA
BRANCH  17  18
ATOM     18  C17 UNK     0       0.493   1.854  -0.931  0.00  0.00    +0.000 C 
ATOM     19  O7  UNK     0       0.357   2.811  -1.741  0.00  0.00    +0.000 OA
BRANCH  18  20
ATOM     20  C18 UNK     0       1.820   1.245  -0.756  0.00  0.00    +0.000 C 
ATOM     21  C19 UNK     0       2.012   0.200   0.061  0.00  0.00    +0.000 C 
BRANCH  21  22
ATOM     22  C20 UNK     0       3.324  -0.463   0.260  0.00  0.00    +0.000 A 
ATOM     23  C21 UNK     0       3.346  -1.768   0.779  0.00  0.00    +0.000 A 
ATOM     24  C23 UNK     0       4.554  -2.442   0.997  0.00  0.00    +0.000 A 
ATOM     25  C25 UNK     0       5.775  -1.794   0.699  0.00  0.00    +0.000 A 
ATOM     26  C24 UNK     0       5.755  -0.489   0.198  0.00  0.00    +0.000 A 
ATOM     27  C22 UNK     0       4.546   0.176  -0.017  0.00  0.00    +0.000 A 
BRANCH  24  28
ATOM     28  O8  UNK     0       4.493  -3.740   1.507  0.00  0.00    +0.000 OA
ATOM     29  H42 UNK     0       5.305  -4.309   1.702  0.00  0.00    +0.000 HD
ENDBRANCH  24  28
BRANCH  25  30
ATOM     30  O9  UNK     0       7.018  -2.402   0.888  0.00  0.00    +0.000 OA
ATOM     31  H43 UNK     0       7.140  -3.340   1.241  0.00  0.00    +0.000 HD
ENDBRANCH  25  30
ENDBRANCH  21  22
ENDBRANCH  18  20
ENDBRANCH  17  18
ENDBRANCH   2  17
TORSDOF 11
