REMARK  Name = C:\Users\Maximilian\Desktop\Conformers\converted_pdb\conformers_pdb\Circumin_conf_36.pdb
REMARK  12 active torsions:
REMARK  status: ('A' for Active; 'I' for Inactive)
REMARK    1  A    between atoms: C9_1  and  C21_2
REMARK    2  A    between atoms: C9_1  and  C20_16
REMARK    3  A    between atoms: C21_2  and  C25_4
REMARK    4  A    between atoms: C17_5  and  C8_6
REMARK    5  A    between atoms: C13_8  and  O2_12
REMARK    6  A    between atoms: C19_9  and  O4_14
REMARK    7  A    between atoms: O2_12  and  C27_13
REMARK    8  A    between atoms: C20_16  and  C24_18
REMARK    9  A    between atoms: C16_19  and  C7_20
REMARK   10  A    between atoms: C18_23  and  O3_26
REMARK   11  A    between atoms: C12_24  and  O1_28
REMARK   12  A    between atoms: O1_28  and  C26_29
REMARK                            x       y       z     vdW  Elec       q    Type
REMARK                         _______ _______ _______ _____ _____    ______ ____
ROOT
ATOM      1  C9  UNK     0      -0.805  -2.252   3.246  0.00  0.00    +0.000 C 
ENDROOT
BRANCH   1   2
ATOM      2  C21 UNK     0      -1.073  -2.885   1.913  0.00  0.00    +0.000 C 
ATOM      3  O6  UNK     0      -0.719  -4.081   1.711  0.00  0.00    +0.000 OA
BRANCH   2   4
ATOM      4  C25 UNK     0      -1.697  -2.088   0.835  0.00  0.00    +0.000 C 
ATOM      5  C17 UNK     0      -1.872  -2.568  -0.405  0.00  0.00    +0.000 C 
BRANCH   5   6
ATOM      6  C8  UNK     0      -2.472  -1.775  -1.511  0.00  0.00    +0.000 A 
ATOM      7  C11 UNK     0      -2.420  -0.362  -1.550  0.00  0.00    +0.000 A 
ATOM      8  C13 UNK     0      -3.004   0.349  -2.614  0.00  0.00    +0.000 A 
ATOM      9  C19 UNK     0      -3.628  -0.356  -3.652  0.00  0.00    +0.000 A 
ATOM     10  C23 UNK     0      -3.665  -1.759  -3.627  0.00  0.00    +0.000 A 
ATOM     11  C15 UNK     0      -3.082  -2.462  -2.571  0.00  0.00    +0.000 A 
BRANCH   8  12
ATOM     12  O2  UNK     0      -2.984   1.749  -2.675  0.00  0.00    +0.000 OA
ATOM     13  C27 UNK     0      -2.360   2.592  -1.711  0.00  0.00    +0.000 C 
ENDBRANCH   8  12
BRANCH   9  14
ATOM     14  O4  UNK     0      -4.202   0.349  -4.716  0.00  0.00    +0.000 OA
ATOM     15  H41 UNK     0      -4.658  -0.127  -5.485  0.00  0.00    +0.000 HD
ENDBRANCH   9  14
ENDBRANCH   5   6
ENDBRANCH   2   4
ENDBRANCH   1   2
BRANCH   1  16
ATOM     16  C20 UNK     0       0.311  -1.260   3.121  0.00  0.00    +0.000 C 
ATOM     17  O5  UNK     0       0.040  -0.033   3.022  0.00  0.00    +0.000 OA
BRANCH  16  18
ATOM     18  C24 UNK     0       1.715  -1.716   3.128  0.00  0.00    +0.000 C 
ATOM     19  C16 UNK     0       2.713  -1.127   2.451  0.00  0.00    +0.000 C 
BRANCH  19  20
ATOM     20  C7  UNK     0       2.526  -0.064   1.432  0.00  0.00    +0.000 A 
ATOM     21  C14 UNK     0       1.564  -0.192   0.415  0.00  0.00    +0.000 A 
ATOM     22  C22 UNK     0       1.416   0.810  -0.549  0.00  0.00    +0.000 A 
ATOM     23  C18 UNK     0       2.238   1.941  -0.527  0.00  0.00    +0.000 A 
ATOM     24  C12 UNK     0       3.229   2.069   0.467  0.00  0.00    +0.000 A 
ATOM     25  C10 UNK     0       3.370   1.055   1.441  0.00  0.00    +0.000 A 
BRANCH  23  26
ATOM     26  O3  UNK     0       2.055   2.926  -1.502  0.00  0.00    +0.000 OA
ATOM     27  H40 UNK     0       2.602   3.778  -1.515  0.00  0.00    +0.000 HD
ENDBRANCH  23  26
BRANCH  24  28
ATOM     28  O1  UNK     0       4.054   3.204   0.454  0.00  0.00    +0.000 OA
ATOM     29  C26 UNK     0       5.061   3.481   1.423  0.00  0.00    +0.000 C 
ENDBRANCH  24  28
ENDBRANCH  19  20
ENDBRANCH  16  18
ENDBRANCH   1  16
TORSDOF 10
