REMARK  Name = C:\Users\Maximilian\Desktop\Conformers\converted_pdb\conformers_pdb\Circumin_conf_19.pdb
REMARK  12 active torsions:
REMARK  status: ('A' for Active; 'I' for Inactive)
REMARK    1  A    between atoms: C9_1  and  C21_2
REMARK    2  A    between atoms: C9_1  and  C20_16
REMARK    3  A    between atoms: C21_2  and  C25_4
REMARK    4  A    between atoms: C17_5  and  C8_6
REMARK    5  A    between atoms: C13_8  and  O2_12
REMARK    6  A    between atoms: C19_9  and  O4_14
REMARK    7  A    between atoms: O2_12  and  C27_13
REMARK    8  A    between atoms: C20_16  and  C24_18
REMARK    9  A    between atoms: C16_19  and  C7_20
REMARK   10  A    between atoms: C18_23  and  O3_26
REMARK   11  A    between atoms: C12_24  and  O1_28
REMARK   12  A    between atoms: O1_28  and  C26_29
REMARK                            x       y       z     vdW  Elec       q    Type
REMARK                         _______ _______ _______ _____ _____    ______ ____
ROOT
ATOM      1  C9  UNK     0      -0.233  -1.450  -1.304  0.00  0.00    +0.000 C 
ENDROOT
BRANCH   1   2
ATOM      2  C21 UNK     0       0.866  -2.418  -1.681  0.00  0.00    +0.000 C 
ATOM      3  O6  UNK     0       0.571  -3.610  -1.966  0.00  0.00    +0.000 OA
BRANCH   2   4
ATOM      4  C25 UNK     0       2.295  -2.039  -1.668  0.00  0.00    +0.000 C 
ATOM      5  C17 UNK     0       2.762  -0.953  -1.035  0.00  0.00    +0.000 C 
BRANCH   5   6
ATOM      6  C8  UNK     0       4.198  -0.579  -1.003  0.00  0.00    +0.000 A 
ATOM      7  C11 UNK     0       4.655   0.253   0.033  0.00  0.00    +0.000 A 
ATOM      8  C13 UNK     0       6.007   0.646   0.100  0.00  0.00    +0.000 A 
ATOM      9  C19 UNK     0       6.899   0.207  -0.887  0.00  0.00    +0.000 A 
ATOM     10  C23 UNK     0       6.446  -0.608  -1.931  0.00  0.00    +0.000 A 
ATOM     11  C15 UNK     0       5.107  -0.995  -1.994  0.00  0.00    +0.000 A 
BRANCH   8  12
ATOM     12  O2  UNK     0       6.498   1.467   1.127  0.00  0.00    +0.000 OA
ATOM     13  C27 UNK     0       5.708   1.985   2.193  0.00  0.00    +0.000 C 
ENDBRANCH   8  12
BRANCH   9  14
ATOM     14  O4  UNK     0       8.238   0.591  -0.826  0.00  0.00    +0.000 OA
ATOM     15  H41 UNK     0       8.908   0.292  -1.525  0.00  0.00    +0.000 HD
ENDBRANCH   9  14
ENDBRANCH   5   6
ENDBRANCH   2   4
ENDBRANCH   1   2
BRANCH   1  16
ATOM     16  C20 UNK     0      -1.528  -1.715  -2.036  0.00  0.00    +0.000 C 
ATOM     17  O5  UNK     0      -1.495  -2.158  -3.217  0.00  0.00    +0.000 OA
BRANCH  16  18
ATOM     18  C24 UNK     0      -2.849  -1.413  -1.445  0.00  0.00    +0.000 C 
ATOM     19  C16 UNK     0      -3.014  -0.611  -0.382  0.00  0.00    +0.000 C 
BRANCH  19  20
ATOM     20  C7  UNK     0      -4.338  -0.290   0.203  0.00  0.00    +0.000 A 
ATOM     21  C14 UNK     0      -5.453  -1.136   0.053  0.00  0.00    +0.000 A 
ATOM     22  C22 UNK     0      -6.678  -0.800   0.633  0.00  0.00    +0.000 A 
ATOM     23  C18 UNK     0      -6.809   0.378   1.379  0.00  0.00    +0.000 A 
ATOM     24  C12 UNK     0      -5.707   1.225   1.554  0.00  0.00    +0.000 A 
ATOM     25  C10 UNK     0      -4.472   0.882   0.967  0.00  0.00    +0.000 A 
BRANCH  23  26
ATOM     26  O3  UNK     0      -8.033   0.712   1.955  0.00  0.00    +0.000 OA
ATOM     27  H40 UNK     0      -8.849   0.120   1.849  0.00  0.00    +0.000 HD
ENDBRANCH  23  26
BRANCH  24  28
ATOM     28  O1  UNK     0      -5.876   2.393   2.313  0.00  0.00    +0.000 OA
ATOM     29  C26 UNK     0      -4.847   3.343   2.573  0.00  0.00    +0.000 C 
ENDBRANCH  24  28
ENDBRANCH  19  20
ENDBRANCH  16  18
ENDBRANCH   1  16
TORSDOF 10
