REMARK  Name = C:\Users\Maximilian\Desktop\Conformers\converted_pdb\conformers_pdb\Circumin_conf_66.pdb
REMARK  12 active torsions:
REMARK  status: ('A' for Active; 'I' for Inactive)
REMARK    1  A    between atoms: C9_1  and  C21_2
REMARK    2  A    between atoms: C9_1  and  C20_16
REMARK    3  A    between atoms: C21_2  and  C25_4
REMARK    4  A    between atoms: C17_5  and  C8_6
REMARK    5  A    between atoms: C13_8  and  O2_12
REMARK    6  A    between atoms: C19_9  and  O4_14
REMARK    7  A    between atoms: O2_12  and  C27_13
REMARK    8  A    between atoms: C20_16  and  C24_18
REMARK    9  A    between atoms: C16_19  and  C7_20
REMARK   10  A    between atoms: C18_23  and  O3_26
REMARK   11  A    between atoms: C12_24  and  O1_28
REMARK   12  A    between atoms: O1_28  and  C26_29
REMARK                            x       y       z     vdW  Elec       q    Type
REMARK                         _______ _______ _______ _____ _____    ______ ____
ROOT
ATOM      1  C9  UNK     0      -0.049  -0.781  -0.478  0.00  0.00    +0.000 C 
ENDROOT
BRANCH   1   2
ATOM      2  C21 UNK     0      -1.322  -1.353  -1.061  0.00  0.00    +0.000 C 
ATOM      3  O6  UNK     0      -1.254  -2.154  -2.032  0.00  0.00    +0.000 OA
BRANCH   2   4
ATOM      4  C25 UNK     0      -2.664  -0.955  -0.583  0.00  0.00    +0.000 C 
ATOM      5  C17 UNK     0      -2.886   0.125   0.181  0.00  0.00    +0.000 C 
BRANCH   5   6
ATOM      6  C8  UNK     0      -4.230   0.526   0.666  0.00  0.00    +0.000 A 
ATOM      7  C11 UNK     0      -5.417   0.160   0.000  0.00  0.00    +0.000 A 
ATOM      8  C13 UNK     0      -6.674   0.571   0.490  0.00  0.00    +0.000 A 
ATOM      9  C19 UNK     0      -6.734   1.364   1.649  0.00  0.00    +0.000 A 
ATOM     10  C23 UNK     0      -5.556   1.742   2.299  0.00  0.00    +0.000 A 
ATOM     11  C15 UNK     0      -4.315   1.333   1.810  0.00  0.00    +0.000 A 
BRANCH   8  12
ATOM     12  O2  UNK     0      -7.874   0.216  -0.148  0.00  0.00    +0.000 OA
ATOM     13  C27 UNK     0      -7.960  -0.584  -1.323  0.00  0.00    +0.000 C 
ENDBRANCH   8  12
BRANCH   9  14
ATOM     14  O4  UNK     0      -7.956   1.790   2.170  0.00  0.00    +0.000 OA
ATOM     15  H41 UNK     0      -8.840   1.546   1.740  0.00  0.00    +0.000 HD
ENDBRANCH   9  14
ENDBRANCH   5   6
ENDBRANCH   2   4
ENDBRANCH   1   2
BRANCH   1  16
ATOM     16  C20 UNK     0       1.127  -1.728  -0.566  0.00  0.00    +0.000 C 
ATOM     17  O5  UNK     0       0.927  -2.972  -0.522  0.00  0.00    +0.000 OA
BRANCH  16  18
ATOM     18  C24 UNK     0       2.526  -1.253  -0.630  0.00  0.00    +0.000 C 
ATOM     19  C16 UNK     0       2.893   0.006  -0.347  0.00  0.00    +0.000 C 
BRANCH  19  20
ATOM     20  C7  UNK     0       4.296   0.487  -0.412  0.00  0.00    +0.000 A 
ATOM     21  C14 UNK     0       4.525   1.859  -0.588  0.00  0.00    +0.000 A 
ATOM     22  C22 UNK     0       5.826   2.359  -0.647  0.00  0.00    +0.000 A 
ATOM     23  C18 UNK     0       6.921   1.502  -0.519  0.00  0.00    +0.000 A 
ATOM     24  C12 UNK     0       6.717   0.124  -0.323  0.00  0.00    +0.000 A 
ATOM     25  C10 UNK     0       5.400  -0.376  -0.265  0.00  0.00    +0.000 A 
BRANCH  23  26
ATOM     26  O3  UNK     0       8.208   2.038  -0.586  0.00  0.00    +0.000 OA
ATOM     27  H40 UNK     0       9.037   1.463  -0.499  0.00  0.00    +0.000 HD
ENDBRANCH  23  26
BRANCH  24  28
ATOM     28  O1  UNK     0       7.838  -0.712  -0.186  0.00  0.00    +0.000 OA
ATOM     29  C26 UNK     0       7.777  -2.121   0.013  0.00  0.00    +0.000 C 
ENDBRANCH  24  28
ENDBRANCH  19  20
ENDBRANCH  16  18
ENDBRANCH   1  16
TORSDOF 10
