REMARK  Name = C:\Users\Maximilian\Desktop\Conformers\converted_pdb\conformers_pdb\Circumin_conf_39.pdb
REMARK  12 active torsions:
REMARK  status: ('A' for Active; 'I' for Inactive)
REMARK    1  A    between atoms: C9_1  and  C21_2
REMARK    2  A    between atoms: C9_1  and  C20_16
REMARK    3  A    between atoms: C21_2  and  C25_4
REMARK    4  A    between atoms: C17_5  and  C8_6
REMARK    5  A    between atoms: C13_8  and  O2_12
REMARK    6  A    between atoms: C19_9  and  O4_14
REMARK    7  A    between atoms: O2_12  and  C27_13
REMARK    8  A    between atoms: C20_16  and  C24_18
REMARK    9  A    between atoms: C16_19  and  C7_20
REMARK   10  A    between atoms: C18_23  and  O3_26
REMARK   11  A    between atoms: C12_24  and  O1_28
REMARK   12  A    between atoms: O1_28  and  C26_29
REMARK                            x       y       z     vdW  Elec       q    Type
REMARK                         _______ _______ _______ _____ _____    ______ ____
ROOT
ATOM      1  C9  UNK     0       0.432   0.652   3.601  0.00  0.00    +0.000 C 
ENDROOT
BRANCH   1   2
ATOM      2  C21 UNK     0      -0.883   0.380   2.935  0.00  0.00    +0.000 C 
ATOM      3  O6  UNK     0      -1.102  -0.764   2.451  0.00  0.00    +0.000 OA
BRANCH   2   4
ATOM      4  C25 UNK     0      -1.918   1.434   2.871  0.00  0.00    +0.000 C 
ATOM      5  C17 UNK     0      -2.877   1.511   1.935  0.00  0.00    +0.000 C 
BRANCH   5   6
ATOM      6  C8  UNK     0      -2.931   0.683   0.712  0.00  0.00    +0.000 A 
ATOM      7  C11 UNK     0      -4.144   0.094   0.329  0.00  0.00    +0.000 A 
ATOM      8  C13 UNK     0      -4.228  -0.673  -0.851  0.00  0.00    +0.000 A 
ATOM      9  C19 UNK     0      -3.082  -0.823  -1.656  0.00  0.00    +0.000 A 
ATOM     10  C23 UNK     0      -1.882  -0.209  -1.287  0.00  0.00    +0.000 A 
ATOM     11  C15 UNK     0      -1.807   0.550  -0.119  0.00  0.00    +0.000 A 
BRANCH   8  12
ATOM     12  O2  UNK     0      -5.423  -1.292  -1.251  0.00  0.00    +0.000 OA
ATOM     13  C27 UNK     0      -6.650  -1.220  -0.533  0.00  0.00    +0.000 C 
ENDBRANCH   8  12
BRANCH   9  14
ATOM     14  O4  UNK     0      -3.121  -1.575  -2.830  0.00  0.00    +0.000 OA
ATOM     15  H41 UNK     0      -3.964  -2.039  -3.147  0.00  0.00    +0.000 HD
ENDBRANCH   9  14
ENDBRANCH   5   6
ENDBRANCH   2   4
ENDBRANCH   1   2
BRANCH   1  16
ATOM     16  C20 UNK     0       1.523   0.691   2.575  0.00  0.00    +0.000 C 
ATOM     17  O5  UNK     0       2.392  -0.223   2.559  0.00  0.00    +0.000 OA
BRANCH  16  18
ATOM     18  C24 UNK     0       1.588   1.812   1.614  0.00  0.00    +0.000 C 
ATOM     19  C16 UNK     0       2.147   1.758   0.395  0.00  0.00    +0.000 C 
BRANCH  19  20
ATOM     20  C7  UNK     0       2.638   0.531  -0.271  0.00  0.00    +0.000 A 
ATOM     21  C14 UNK     0       1.877  -0.650  -0.285  0.00  0.00    +0.000 A 
ATOM     22  C22 UNK     0       2.338  -1.776  -0.969  0.00  0.00    +0.000 A 
ATOM     23  C18 UNK     0       3.553  -1.733  -1.664  0.00  0.00    +0.000 A 
ATOM     24  C12 UNK     0       4.311  -0.553  -1.683  0.00  0.00    +0.000 A 
ATOM     25  C10 UNK     0       3.841   0.581  -0.991  0.00  0.00    +0.000 A 
BRANCH  23  26
ATOM     26  O3  UNK     0       4.013  -2.858  -2.346  0.00  0.00    +0.000 OA
ATOM     27  H40 UNK     0       3.489  -3.725  -2.352  0.00  0.00    +0.000 HD
ENDBRANCH  23  26
BRANCH  24  28
ATOM     28  O1  UNK     0       5.520  -0.546  -2.397  0.00  0.00    +0.000 OA
ATOM     29  C26 UNK     0       6.385   0.580  -2.506  0.00  0.00    +0.000 C 
ENDBRANCH  24  28
ENDBRANCH  19  20
ENDBRANCH  16  18
ENDBRANCH   1  16
TORSDOF 10
