REMARK  Name = C:\Users\Maximilian\Desktop\Conformers\converted_pdb\conformers_pdb\Circumin_conf_59.pdb
REMARK  12 active torsions:
REMARK  status: ('A' for Active; 'I' for Inactive)
REMARK    1  A    between atoms: C9_1  and  C21_2
REMARK    2  A    between atoms: C9_1  and  C20_16
REMARK    3  A    between atoms: C21_2  and  C25_4
REMARK    4  A    between atoms: C17_5  and  C8_6
REMARK    5  A    between atoms: C13_8  and  O2_12
REMARK    6  A    between atoms: C19_9  and  O4_14
REMARK    7  A    between atoms: O2_12  and  C27_13
REMARK    8  A    between atoms: C20_16  and  C24_18
REMARK    9  A    between atoms: C16_19  and  C7_20
REMARK   10  A    between atoms: C18_23  and  O3_26
REMARK   11  A    between atoms: C12_24  and  O1_28
REMARK   12  A    between atoms: O1_28  and  C26_29
REMARK                            x       y       z     vdW  Elec       q    Type
REMARK                         _______ _______ _______ _____ _____    ______ ____
ROOT
ATOM      1  C9  UNK     0       0.502   2.012  -0.240  0.00  0.00    +0.000 C 
ENDROOT
BRANCH   1   2
ATOM      2  C21 UNK     0       1.911   1.493  -0.175  0.00  0.00    +0.000 C 
ATOM      3  O6  UNK     0       2.507   1.203  -1.247  0.00  0.00    +0.000 OA
BRANCH   2   4
ATOM      4  C25 UNK     0       2.584   1.355   1.136  0.00  0.00    +0.000 C 
ATOM      5  C17 UNK     0       3.682   0.621   1.377  0.00  0.00    +0.000 C 
BRANCH   5   6
ATOM      6  C8  UNK     0       4.307  -0.322   0.425  0.00  0.00    +0.000 A 
ATOM      7  C11 UNK     0       5.698  -0.303   0.254  0.00  0.00    +0.000 A 
ATOM      8  C13 UNK     0       6.326  -1.223  -0.610  0.00  0.00    +0.000 A 
ATOM      9  C19 UNK     0       5.547  -2.175  -1.284  0.00  0.00    +0.000 A 
ATOM     10  C23 UNK     0       4.160  -2.213  -1.090  0.00  0.00    +0.000 A 
ATOM     11  C15 UNK     0       3.544  -1.301  -0.232  0.00  0.00    +0.000 A 
BRANCH   8  12
ATOM     12  O2  UNK     0       7.713  -1.224  -0.822  0.00  0.00    +0.000 OA
ATOM     13  C27 UNK     0       8.624  -0.322  -0.202  0.00  0.00    +0.000 C 
ENDBRANCH   8  12
BRANCH   9  14
ATOM     14  O4  UNK     0       6.162  -3.088  -2.140  0.00  0.00    +0.000 OA
ATOM     15  H41 UNK     0       5.628  -3.789  -2.640  0.00  0.00    +0.000 HD
ENDBRANCH   9  14
ENDBRANCH   5   6
ENDBRANCH   2   4
ENDBRANCH   1   2
BRANCH   1  16
ATOM     16  C20 UNK     0      -0.520   0.943   0.040  0.00  0.00    +0.000 C 
ATOM     17  O5  UNK     0      -0.162  -0.250   0.248  0.00  0.00    +0.000 OA
BRANCH  16  18
ATOM     18  C24 UNK     0      -1.950   1.307   0.062  0.00  0.00    +0.000 C 
ATOM     19  C16 UNK     0      -2.916   0.402   0.276  0.00  0.00    +0.000 C 
BRANCH  19  20
ATOM     20  C7  UNK     0      -4.363   0.730   0.291  0.00  0.00    +0.000 A 
ATOM     21  C14 UNK     0      -4.839   2.027   0.559  0.00  0.00    +0.000 A 
ATOM     22  C22 UNK     0      -6.211   2.287   0.574  0.00  0.00    +0.000 A 
ATOM     23  C18 UNK     0      -7.129   1.262   0.333  0.00  0.00    +0.000 A 
ATOM     24  C12 UNK     0      -6.676  -0.044   0.079  0.00  0.00    +0.000 A 
ATOM     25  C10 UNK     0      -5.290  -0.301   0.066  0.00  0.00    +0.000 A 
BRANCH  23  26
ATOM     26  O3  UNK     0      -8.492   1.561   0.354  0.00  0.00    +0.000 OA
ATOM     27  H40 UNK     0      -9.202   0.859   0.186  0.00  0.00    +0.000 HD
ENDBRANCH  23  26
BRANCH  24  28
ATOM     28  O1  UNK     0      -7.622  -1.055  -0.154  0.00  0.00    +0.000 OA
ATOM     29  C26 UNK     0      -7.301  -2.416  -0.428  0.00  0.00    +0.000 C 
ENDBRANCH  24  28
ENDBRANCH  19  20
ENDBRANCH  16  18
ENDBRANCH   1  16
TORSDOF 10
