REMARK  Name = C:\Users\Maximilian\Desktop\Conformers\converted_pdb\conformers_pdb\Circumin_conf_5.pdb
REMARK  12 active torsions:
REMARK  status: ('A' for Active; 'I' for Inactive)
REMARK    1  A    between atoms: C9_1  and  C21_2
REMARK    2  A    between atoms: C9_1  and  C20_16
REMARK    3  A    between atoms: C21_2  and  C25_4
REMARK    4  A    between atoms: C17_5  and  C8_6
REMARK    5  A    between atoms: C13_8  and  O2_12
REMARK    6  A    between atoms: C19_9  and  O4_14
REMARK    7  A    between atoms: O2_12  and  C27_13
REMARK    8  A    between atoms: C20_16  and  C24_18
REMARK    9  A    between atoms: C16_19  and  C7_20
REMARK   10  A    between atoms: C18_23  and  O3_26
REMARK   11  A    between atoms: C12_24  and  O1_28
REMARK   12  A    between atoms: O1_28  and  C26_29
REMARK                            x       y       z     vdW  Elec       q    Type
REMARK                         _______ _______ _______ _____ _____    ______ ____
ROOT
ATOM      1  C9  UNK     0       0.268   0.839   1.086  0.00  0.00    +0.000 C 
ENDROOT
BRANCH   1   2
ATOM      2  C21 UNK     0      -1.200   1.095   1.284  0.00  0.00    +0.000 C 
ATOM      3  O6  UNK     0      -1.566   2.088   1.970  0.00  0.00    +0.000 OA
BRANCH   2   4
ATOM      4  C25 UNK     0      -2.197   0.213   0.643  0.00  0.00    +0.000 C 
ATOM      5  C17 UNK     0      -3.516   0.417   0.770  0.00  0.00    +0.000 C 
BRANCH   5   6
ATOM      6  C8  UNK     0      -4.549  -0.436   0.131  0.00  0.00    +0.000 A 
ATOM      7  C11 UNK     0      -5.841   0.088  -0.043  0.00  0.00    +0.000 A 
ATOM      8  C13 UNK     0      -6.860  -0.683  -0.637  0.00  0.00    +0.000 A 
ATOM      9  C19 UNK     0      -6.579  -1.992  -1.048  0.00  0.00    +0.000 A 
ATOM     10  C23 UNK     0      -5.299  -2.527  -0.863  0.00  0.00    +0.000 A 
ATOM     11  C15 UNK     0      -4.291  -1.760  -0.275  0.00  0.00    +0.000 A 
BRANCH   8  12
ATOM     12  O2  UNK     0      -8.158  -0.185  -0.834  0.00  0.00    +0.000 OA
ATOM     13  C27 UNK     0      -8.587   1.121  -0.459  0.00  0.00    +0.000 C 
ENDBRANCH   8  12
BRANCH   9  14
ATOM     14  O4  UNK     0      -7.582  -2.760  -1.637  0.00  0.00    +0.000 OA
ATOM     15  H41 UNK     0      -7.411  -3.710  -1.946  0.00  0.00    +0.000 HD
ENDBRANCH   9  14
ENDBRANCH   5   6
ENDBRANCH   2   4
ENDBRANCH   1   2
BRANCH   1  16
ATOM     16  C20 UNK     0       0.803   1.489  -0.169  0.00  0.00    +0.000 C 
ATOM     17  O5  UNK     0       0.010   2.037  -0.982  0.00  0.00    +0.000 OA
BRANCH  16  18
ATOM     18  C24 UNK     0       2.246   1.497  -0.493  0.00  0.00    +0.000 C 
ATOM     19  C16 UNK     0       3.169   0.857   0.241  0.00  0.00    +0.000 C 
BRANCH  19  20
ATOM     20  C7  UNK     0       4.617   0.854  -0.086  0.00  0.00    +0.000 A 
ATOM     21  C14 UNK     0       5.220   1.874  -0.844  0.00  0.00    +0.000 A 
ATOM     22  C22 UNK     0       6.590   1.839  -1.113  0.00  0.00    +0.000 A 
ATOM     23  C18 UNK     0       7.382   0.796  -0.625  0.00  0.00    +0.000 A 
ATOM     24  C12 UNK     0       6.802  -0.226   0.147  0.00  0.00    +0.000 A 
ATOM     25  C10 UNK     0       5.419  -0.185   0.416  0.00  0.00    +0.000 A 
BRANCH  23  26
ATOM     26  O3  UNK     0       8.746   0.795  -0.915  0.00  0.00    +0.000 OA
ATOM     27  H40 UNK     0       9.368   0.067  -0.584  0.00  0.00    +0.000 HD
ENDBRANCH  23  26
BRANCH  24  28
ATOM     28  O1  UNK     0       7.623  -1.259   0.627  0.00  0.00    +0.000 OA
ATOM     29  C26 UNK     0       7.166  -2.355   1.414  0.00  0.00    +0.000 C 
ENDBRANCH  24  28
ENDBRANCH  19  20
ENDBRANCH  16  18
ENDBRANCH   1  16
TORSDOF 10
