REMARK  Name = C:\Users\Maximilian\Desktop\Conformers\converted_pdb\conformers_pdb\Circumin_conf_68.pdb
REMARK  12 active torsions:
REMARK  status: ('A' for Active; 'I' for Inactive)
REMARK    1  A    between atoms: C9_1  and  C21_2
REMARK    2  A    between atoms: C9_1  and  C20_16
REMARK    3  A    between atoms: C21_2  and  C25_4
REMARK    4  A    between atoms: C17_5  and  C8_6
REMARK    5  A    between atoms: C13_8  and  O2_12
REMARK    6  A    between atoms: C19_9  and  O4_14
REMARK    7  A    between atoms: O2_12  and  C27_13
REMARK    8  A    between atoms: C20_16  and  C24_18
REMARK    9  A    between atoms: C16_19  and  C7_20
REMARK   10  A    between atoms: C18_23  and  O3_26
REMARK   11  A    between atoms: C12_24  and  O1_28
REMARK   12  A    between atoms: O1_28  and  C26_29
REMARK                            x       y       z     vdW  Elec       q    Type
REMARK                         _______ _______ _______ _____ _____    ______ ____
ROOT
ATOM      1  C9  UNK     0      -0.133   2.801   1.161  0.00  0.00    +0.000 C 
ENDROOT
BRANCH   1   2
ATOM      2  C21 UNK     0       0.508   2.293  -0.096  0.00  0.00    +0.000 C 
ATOM      3  O6  UNK     0       1.183   1.230  -0.057  0.00  0.00    +0.000 OA
BRANCH   2   4
ATOM      4  C25 UNK     0       0.263   2.992  -1.378  0.00  0.00    +0.000 C 
ATOM      5  C17 UNK     0       0.976   2.830  -2.504  0.00  0.00    +0.000 C 
BRANCH   5   6
ATOM      6  C8  UNK     0       2.235   2.065  -2.616  0.00  0.00    +0.000 A 
ATOM      7  C11 UNK     0       2.405   1.174  -3.685  0.00  0.00    +0.000 A 
ATOM      8  C13 UNK     0       3.613   0.465  -3.842  0.00  0.00    +0.000 A 
ATOM      9  C19 UNK     0       4.657   0.676  -2.929  0.00  0.00    +0.000 A 
ATOM     10  C23 UNK     0       4.499   1.589  -1.879  0.00  0.00    +0.000 A 
ATOM     11  C15 UNK     0       3.300   2.288  -1.728  0.00  0.00    +0.000 A 
BRANCH   8  12
ATOM     12  O2  UNK     0       3.813  -0.451  -4.887  0.00  0.00    +0.000 OA
ATOM     13  C27 UNK     0       2.843  -0.763  -5.882  0.00  0.00    +0.000 C 
ENDBRANCH   8  12
BRANCH   9  14
ATOM     14  O4  UNK     0       5.853  -0.024  -3.077  0.00  0.00    +0.000 OA
ATOM     15  H41 UNK     0       6.627   0.107  -2.436  0.00  0.00    +0.000 HD
ENDBRANCH   9  14
ENDBRANCH   5   6
ENDBRANCH   2   4
ENDBRANCH   1   2
BRANCH   1  16
ATOM     16  C20 UNK     0      -1.579   2.390   1.223  0.00  0.00    +0.000 C 
ATOM     17  O5  UNK     0      -2.453   3.215   0.845  0.00  0.00    +0.000 OA
BRANCH  16  18
ATOM     18  C24 UNK     0      -2.030   1.053   1.673  0.00  0.00    +0.000 C 
ATOM     19  C16 UNK     0      -1.196   0.074   2.055  0.00  0.00    +0.000 C 
BRANCH  19  20
ATOM     20  C7  UNK     0      -1.656  -1.269   2.486  0.00  0.00    +0.000 A 
ATOM     21  C14 UNK     0      -0.768  -2.349   2.373  0.00  0.00    +0.000 A 
ATOM     22  C22 UNK     0      -1.154  -3.629   2.773  0.00  0.00    +0.000 A 
ATOM     23  C18 UNK     0      -2.427  -3.852   3.304  0.00  0.00    +0.000 A 
ATOM     24  C12 UNK     0      -3.328  -2.781   3.445  0.00  0.00    +0.000 A 
ATOM     25  C10 UNK     0      -2.933  -1.490   3.038  0.00  0.00    +0.000 A 
BRANCH  23  26
ATOM     26  O3  UNK     0      -2.779  -5.145   3.690  0.00  0.00    +0.000 OA
ATOM     27  H40 UNK     0      -3.687  -5.365   4.080  0.00  0.00    +0.000 HD
ENDBRANCH  23  26
BRANCH  24  28
ATOM     28  O1  UNK     0      -4.597  -3.033   3.992  0.00  0.00    +0.000 OA
ATOM     29  C26 UNK     0      -5.605  -2.047   4.187  0.00  0.00    +0.000 C 
ENDBRANCH  24  28
ENDBRANCH  19  20
ENDBRANCH  16  18
ENDBRANCH   1  16
TORSDOF 10
