REMARK  Name = C:\Users\Maximilian\Desktop\Conformers\converted_pdb\conformers_pdb\Circumin_conf_25.pdb
REMARK  12 active torsions:
REMARK  status: ('A' for Active; 'I' for Inactive)
REMARK    1  A    between atoms: C9_1  and  C21_2
REMARK    2  A    between atoms: C9_1  and  C20_16
REMARK    3  A    between atoms: C21_2  and  C25_4
REMARK    4  A    between atoms: C17_5  and  C8_6
REMARK    5  A    between atoms: C13_8  and  O2_12
REMARK    6  A    between atoms: C19_9  and  O4_14
REMARK    7  A    between atoms: O2_12  and  C27_13
REMARK    8  A    between atoms: C20_16  and  C24_18
REMARK    9  A    between atoms: C16_19  and  C7_20
REMARK   10  A    between atoms: C18_23  and  O3_26
REMARK   11  A    between atoms: C12_24  and  O1_28
REMARK   12  A    between atoms: O1_28  and  C26_29
REMARK                            x       y       z     vdW  Elec       q    Type
REMARK                         _______ _______ _______ _____ _____    ______ ____
ROOT
ATOM      1  C9  UNK     0       0.053   0.490  -0.256  0.00  0.00    +0.000 C 
ENDROOT
BRANCH   1   2
ATOM      2  C21 UNK     0       1.486   0.116  -0.005  0.00  0.00    +0.000 C 
ATOM      3  O6  UNK     0       2.290   1.001   0.393  0.00  0.00    +0.000 OA
BRANCH   2   4
ATOM      4  C25 UNK     0       1.906  -1.299  -0.120  0.00  0.00    +0.000 C 
ATOM      5  C17 UNK     0       3.173  -1.730  -0.218  0.00  0.00    +0.000 C 
BRANCH   5   6
ATOM      6  C8  UNK     0       4.357  -0.868  -0.413  0.00  0.00    +0.000 A 
ATOM      7  C11 UNK     0       5.509  -1.100   0.353  0.00  0.00    +0.000 A 
ATOM      8  C13 UNK     0       6.669  -0.324   0.157  0.00  0.00    +0.000 A 
ATOM      9  C19 UNK     0       6.670   0.673  -0.830  0.00  0.00    +0.000 A 
ATOM     10  C23 UNK     0       5.529   0.886  -1.615  0.00  0.00    +0.000 A 
ATOM     11  C15 UNK     0       4.384   0.113  -1.417  0.00  0.00    +0.000 A 
BRANCH   8  12
ATOM     12  O2  UNK     0       7.833  -0.514   0.917  0.00  0.00    +0.000 OA
ATOM     13  C27 UNK     0       7.974  -1.485   1.948  0.00  0.00    +0.000 C 
ENDBRANCH   8  12
BRANCH   9  14
ATOM     14  O4  UNK     0       7.812   1.446  -1.027  0.00  0.00    +0.000 OA
ATOM     15  H41 UNK     0       7.846   2.173  -1.732  0.00  0.00    +0.000 HD
ENDBRANCH   9  14
ENDBRANCH   5   6
ENDBRANCH   2   4
ENDBRANCH   1   2
BRANCH   1  16
ATOM     16  C20 UNK     0      -0.818   0.288   0.962  0.00  0.00    +0.000 C 
ATOM     17  O5  UNK     0      -0.287   0.055   2.082  0.00  0.00    +0.000 OA
BRANCH  16  18
ATOM     18  C24 UNK     0      -2.292   0.378   0.896  0.00  0.00    +0.000 C 
ATOM     19  C16 UNK     0      -2.959   0.761  -0.204  0.00  0.00    +0.000 C 
BRANCH  19  20
ATOM     20  C7  UNK     0      -4.437   0.865  -0.270  0.00  0.00    +0.000 A 
ATOM     21  C14 UNK     0      -5.008   1.715  -1.230  0.00  0.00    +0.000 A 
ATOM     22  C22 UNK     0      -6.394   1.837  -1.335  0.00  0.00    +0.000 A 
ATOM     23  C18 UNK     0      -7.234   1.103  -0.489  0.00  0.00    +0.000 A 
ATOM     24  C12 UNK     0      -6.687   0.234   0.464  0.00  0.00    +0.000 A 
ATOM     25  C10 UNK     0      -5.286   0.114   0.567  0.00  0.00    +0.000 A 
BRANCH  23  26
ATOM     26  O3  UNK     0      -8.618   1.229  -0.593  0.00  0.00    +0.000 OA
ATOM     27  H40 UNK     0      -9.046   1.847  -1.273  0.00  0.00    +0.000 HD
ENDBRANCH  23  26
BRANCH  24  28
ATOM     28  O1  UNK     0      -7.563  -0.492   1.285  0.00  0.00    +0.000 OA
ATOM     29  C26 UNK     0      -7.152  -1.407   2.296  0.00  0.00    +0.000 C 
ENDBRANCH  24  28
ENDBRANCH  19  20
ENDBRANCH  16  18
ENDBRANCH   1  16
TORSDOF 10
