REMARK  Name = C:\Users\Maximilian\Desktop\Conformers\converted_pdb\conformers_pdb\Circumin_conf_9.pdb
REMARK  12 active torsions:
REMARK  status: ('A' for Active; 'I' for Inactive)
REMARK    1  A    between atoms: C9_1  and  C21_2
REMARK    2  A    between atoms: C9_1  and  C20_16
REMARK    3  A    between atoms: C21_2  and  C25_4
REMARK    4  A    between atoms: C17_5  and  C8_6
REMARK    5  A    between atoms: C13_8  and  O2_12
REMARK    6  A    between atoms: C19_9  and  O4_14
REMARK    7  A    between atoms: O2_12  and  C27_13
REMARK    8  A    between atoms: C20_16  and  C24_18
REMARK    9  A    between atoms: C16_19  and  C7_20
REMARK   10  A    between atoms: C18_23  and  O3_26
REMARK   11  A    between atoms: C12_24  and  O1_28
REMARK   12  A    between atoms: O1_28  and  C26_29
REMARK                            x       y       z     vdW  Elec       q    Type
REMARK                         _______ _______ _______ _____ _____    ______ ____
ROOT
ATOM      1  C9  UNK     0       0.027  -0.073  -0.058  0.00  0.00    +0.000 C 
ENDROOT
BRANCH   1   2
ATOM      2  C21 UNK     0       0.713  -1.400   0.167  0.00  0.00    +0.000 C 
ATOM      3  O6  UNK     0       0.034  -2.414   0.490  0.00  0.00    +0.000 OA
BRANCH   2   4
ATOM      4  C25 UNK     0       2.177  -1.560   0.031  0.00  0.00    +0.000 C 
ATOM      5  C17 UNK     0       3.007  -0.541  -0.240  0.00  0.00    +0.000 C 
BRANCH   5   6
ATOM      6  C8  UNK     0       4.478  -0.694  -0.366  0.00  0.00    +0.000 A 
ATOM      7  C11 UNK     0       5.292   0.436  -0.177  0.00  0.00    +0.000 A 
ATOM      8  C13 UNK     0       6.693   0.346  -0.297  0.00  0.00    +0.000 A 
ATOM      9  C19 UNK     0       7.276  -0.886  -0.621  0.00  0.00    +0.000 A 
ATOM     10  C23 UNK     0       6.470  -2.012  -0.827  0.00  0.00    +0.000 A 
ATOM     11  C15 UNK     0       5.082  -1.919  -0.707  0.00  0.00    +0.000 A 
BRANCH   8  12
ATOM     12  O2  UNK     0       7.534   1.453  -0.104  0.00  0.00    +0.000 OA
ATOM     13  C27 UNK     0       7.081   2.762   0.228  0.00  0.00    +0.000 C 
ENDBRANCH   8  12
BRANCH   9  14
ATOM     14  O4  UNK     0       8.662  -0.983  -0.740  0.00  0.00    +0.000 OA
ATOM     15  H41 UNK     0       9.114  -1.859  -0.974  0.00  0.00    +0.000 HD
ENDBRANCH   9  14
ENDBRANCH   5   6
ENDBRANCH   2   4
ENDBRANCH   1   2
BRANCH   1  16
ATOM     16  C20 UNK     0      -1.469  -0.175   0.033  0.00  0.00    +0.000 C 
ATOM     17  O5  UNK     0      -2.127  -0.465  -1.002  0.00  0.00    +0.000 OA
BRANCH  16  18
ATOM     18  C24 UNK     0      -2.135  -0.043   1.347  0.00  0.00    +0.000 C 
ATOM     19  C16 UNK     0      -3.444   0.186   1.538  0.00  0.00    +0.000 C 
BRANCH  19  20
ATOM     20  C7  UNK     0      -4.416   0.527   0.478  0.00  0.00    +0.000 A 
ATOM     21  C14 UNK     0      -4.150   1.547  -0.450  0.00  0.00    +0.000 A 
ATOM     22  C22 UNK     0      -5.101   1.886  -1.414  0.00  0.00    +0.000 A 
ATOM     23  C18 UNK     0      -6.337   1.227  -1.450  0.00  0.00    +0.000 A 
ATOM     24  C12 UNK     0      -6.629   0.227  -0.511  0.00  0.00    +0.000 A 
ATOM     25  C10 UNK     0      -5.665  -0.111   0.460  0.00  0.00    +0.000 A 
BRANCH  23  26
ATOM     26  O3  UNK     0      -7.285   1.565  -2.414  0.00  0.00    +0.000 OA
ATOM     27  H40 UNK     0      -7.105   2.284  -3.106  0.00  0.00    +0.000 HD
ENDBRANCH  23  26
BRANCH  24  28
ATOM     28  O1  UNK     0      -7.882  -0.403  -0.573  0.00  0.00    +0.000 OA
ATOM     29  C26 UNK     0      -8.311  -1.431   0.313  0.00  0.00    +0.000 C 
ENDBRANCH  24  28
ENDBRANCH  19  20
ENDBRANCH  16  18
ENDBRANCH   1  16
TORSDOF 10
