REMARK  Name = C:\Users\Maximilian\Desktop\Conformers\converted_pdb\conformers_pdb\Circumin_conf_67.pdb
REMARK  12 active torsions:
REMARK  status: ('A' for Active; 'I' for Inactive)
REMARK    1  A    between atoms: C9_1  and  C21_2
REMARK    2  A    between atoms: C9_1  and  C20_16
REMARK    3  A    between atoms: C21_2  and  C25_4
REMARK    4  A    between atoms: C17_5  and  C8_6
REMARK    5  A    between atoms: C13_8  and  O2_12
REMARK    6  A    between atoms: C19_9  and  O4_14
REMARK    7  A    between atoms: O2_12  and  C27_13
REMARK    8  A    between atoms: C20_16  and  C24_18
REMARK    9  A    between atoms: C16_19  and  C7_20
REMARK   10  A    between atoms: C18_23  and  O3_26
REMARK   11  A    between atoms: C12_24  and  O1_28
REMARK   12  A    between atoms: O1_28  and  C26_29
REMARK                            x       y       z     vdW  Elec       q    Type
REMARK                         _______ _______ _______ _____ _____    ______ ____
ROOT
ATOM      1  C9  UNK     0      -0.359  -1.414   0.530  0.00  0.00    +0.000 C 
ENDROOT
BRANCH   1   2
ATOM      2  C21 UNK     0      -0.831  -1.443  -0.905  0.00  0.00    +0.000 C 
ATOM      3  O6  UNK     0      -0.100  -1.954  -1.797  0.00  0.00    +0.000 OA
BRANCH   2   4
ATOM      4  C25 UNK     0      -2.152  -0.915  -1.307  0.00  0.00    +0.000 C 
ATOM      5  C17 UNK     0      -3.080  -0.502  -0.430  0.00  0.00    +0.000 C 
BRANCH   5   6
ATOM      6  C8  UNK     0      -4.411   0.017  -0.828  0.00  0.00    +0.000 A 
ATOM      7  C11 UNK     0      -5.459  -0.027   0.107  0.00  0.00    +0.000 A 
ATOM      8  C13 UNK     0      -6.739   0.464  -0.220  0.00  0.00    +0.000 A 
ATOM      9  C19 UNK     0      -6.961   1.013  -1.490  0.00  0.00    +0.000 A 
ATOM     10  C23 UNK     0      -5.916   1.075  -2.420  0.00  0.00    +0.000 A 
ATOM     11  C15 UNK     0      -4.650   0.587  -2.093  0.00  0.00    +0.000 A 
BRANCH   8  12
ATOM     12  O2  UNK     0      -7.810   0.426   0.687  0.00  0.00    +0.000 OA
ATOM     13  C27 UNK     0      -7.729  -0.099   2.009  0.00  0.00    +0.000 C 
ENDBRANCH   8  12
BRANCH   9  14
ATOM     14  O4  UNK     0      -8.225   1.500  -1.819  0.00  0.00    +0.000 OA
ATOM     15  H41 UNK     0      -8.417   1.904  -2.729  0.00  0.00    +0.000 HD
ENDBRANCH   9  14
ENDBRANCH   5   6
ENDBRANCH   2   4
ENDBRANCH   1   2
BRANCH   1  16
ATOM     16  C20 UNK     0       1.104  -1.732   0.655  0.00  0.00    +0.000 C 
ATOM     17  O5  UNK     0       1.458  -2.905   0.959  0.00  0.00    +0.000 OA
BRANCH  16  18
ATOM     18  C24 UNK     0       2.112  -0.688   0.382  0.00  0.00    +0.000 C 
ATOM     19  C16 UNK     0       3.428  -0.919   0.493  0.00  0.00    +0.000 C 
BRANCH  19  20
ATOM     20  C7  UNK     0       4.469   0.107   0.233  0.00  0.00    +0.000 A 
ATOM     21  C14 UNK     0       4.235   1.229  -0.584  0.00  0.00    +0.000 A 
ATOM     22  C22 UNK     0       5.248   2.162  -0.810  0.00  0.00    +0.000 A 
ATOM     23  C18 UNK     0       6.512   1.987  -0.234  0.00  0.00    +0.000 A 
ATOM     24  C12 UNK     0       6.770   0.869   0.570  0.00  0.00    +0.000 A 
ATOM     25  C10 UNK     0       5.744  -0.071   0.795  0.00  0.00    +0.000 A 
BRANCH  23  26
ATOM     26  O3  UNK     0       7.522   2.921  -0.459  0.00  0.00    +0.000 OA
ATOM     27  H40 UNK     0       7.368   3.740  -1.036  0.00  0.00    +0.000 HD
ENDBRANCH  23  26
BRANCH  24  28
ATOM     28  O1  UNK     0       8.051   0.726   1.125  0.00  0.00    +0.000 OA
ATOM     29  C26 UNK     0       8.453  -0.356   1.959  0.00  0.00    +0.000 C 
ENDBRANCH  24  28
ENDBRANCH  19  20
ENDBRANCH  16  18
ENDBRANCH   1  16
TORSDOF 10
