REMARK  Name = C:\Users\Maximilian\Desktop\Conformers\converted_pdb\conformers_pdb\Circumin_conf_46.pdb
REMARK  12 active torsions:
REMARK  status: ('A' for Active; 'I' for Inactive)
REMARK    1  A    between atoms: C9_1  and  C21_2
REMARK    2  A    between atoms: C9_1  and  C20_16
REMARK    3  A    between atoms: C21_2  and  C25_4
REMARK    4  A    between atoms: C17_5  and  C8_6
REMARK    5  A    between atoms: C13_8  and  O2_12
REMARK    6  A    between atoms: C19_9  and  O4_14
REMARK    7  A    between atoms: O2_12  and  C27_13
REMARK    8  A    between atoms: C20_16  and  C24_18
REMARK    9  A    between atoms: C16_19  and  C7_20
REMARK   10  A    between atoms: C18_23  and  O3_26
REMARK   11  A    between atoms: C12_24  and  O1_28
REMARK   12  A    between atoms: O1_28  and  C26_29
REMARK                            x       y       z     vdW  Elec       q    Type
REMARK                         _______ _______ _______ _____ _____    ______ ____
ROOT
ATOM      1  C9  UNK     0       0.054  -0.037   0.580  0.00  0.00    +0.000 C 
ENDROOT
BRANCH   1   2
ATOM      2  C21 UNK     0       0.596  -0.207  -0.819  0.00  0.00    +0.000 C 
ATOM      3  O6  UNK     0      -0.167  -0.594  -1.745  0.00  0.00    +0.000 OA
BRANCH   2   4
ATOM      4  C25 UNK     0       2.018   0.033  -1.144  0.00  0.00    +0.000 C 
ATOM      5  C17 UNK     0       2.963   0.232  -0.213  0.00  0.00    +0.000 C 
BRANCH   5   6
ATOM      6  C8  UNK     0       4.394   0.467  -0.532  0.00  0.00    +0.000 A 
ATOM      7  C11 UNK     0       5.357   0.205   0.456  0.00  0.00    +0.000 A 
ATOM      8  C13 UNK     0       6.726   0.427   0.209  0.00  0.00    +0.000 A 
ATOM      9  C19 UNK     0       7.126   0.926  -1.043  0.00  0.00    +0.000 A 
ATOM     10  C23 UNK     0       6.169   1.201  -2.023  0.00  0.00    +0.000 A 
ATOM     11  C15 UNK     0       4.814   0.982  -1.773  0.00  0.00    +0.000 A 
BRANCH   8  12
ATOM     12  O2  UNK     0       7.708   0.167   1.178  0.00  0.00    +0.000 OA
ATOM     13  C27 UNK     0       7.443  -0.340   2.482  0.00  0.00    +0.000 C 
ENDBRANCH   8  12
BRANCH   9  14
ATOM     14  O4  UNK     0       8.470   1.158  -1.331  0.00  0.00    +0.000 OA
ATOM     15  H41 UNK     0       9.205   0.983  -0.656  0.00  0.00    +0.000 HD
ENDBRANCH   9  14
ENDBRANCH   5   6
ENDBRANCH   2   4
ENDBRANCH   1   2
BRANCH   1  16
ATOM     16  C20 UNK     0      -1.446   0.048   0.601  0.00  0.00    +0.000 C 
ATOM     17  O5  UNK     0      -2.113  -0.960   0.957  0.00  0.00    +0.000 OA
BRANCH  16  18
ATOM     18  C24 UNK     0      -2.115   1.318   0.239  0.00  0.00    +0.000 C 
ATOM     19  C16 UNK     0      -3.410   1.455  -0.084  0.00  0.00    +0.000 C 
BRANCH  19  20
ATOM     20  C7  UNK     0      -4.355   0.343  -0.314  0.00  0.00    +0.000 A 
ATOM     21  C14 UNK     0      -4.041  -0.704  -1.194  0.00  0.00    +0.000 A 
ATOM     22  C22 UNK     0      -4.966  -1.720  -1.436  0.00  0.00    +0.000 A 
ATOM     23  C18 UNK     0      -6.223  -1.695  -0.824  0.00  0.00    +0.000 A 
ATOM     24  C12 UNK     0      -6.566  -0.635   0.037  0.00  0.00    +0.000 A 
ATOM     25  C10 UNK     0      -5.626   0.387   0.278  0.00  0.00    +0.000 A 
BRANCH  23  26
ATOM     26  O3  UNK     0      -7.121  -2.729  -1.087  0.00  0.00    +0.000 OA
ATOM     27  H40 UNK     0      -8.044  -2.762  -0.670  0.00  0.00    +0.000 HD
ENDBRANCH  23  26
BRANCH  24  28
ATOM     28  O1  UNK     0      -7.839  -0.628   0.629  0.00  0.00    +0.000 OA
ATOM     29  C26 UNK     0      -8.310   0.377   1.520  0.00  0.00    +0.000 C 
ENDBRANCH  24  28
ENDBRANCH  19  20
ENDBRANCH  16  18
ENDBRANCH   1  16
TORSDOF 10
