REMARK  Name = C:\Users\Maximilian\Desktop\Conformers\converted_pdb\conformers_pdb\Circumin_conf_13.pdb
REMARK  12 active torsions:
REMARK  status: ('A' for Active; 'I' for Inactive)
REMARK    1  A    between atoms: C9_1  and  C21_2
REMARK    2  A    between atoms: C9_1  and  C20_16
REMARK    3  A    between atoms: C21_2  and  C25_4
REMARK    4  A    between atoms: C17_5  and  C8_6
REMARK    5  A    between atoms: C13_8  and  O2_12
REMARK    6  A    between atoms: C19_9  and  O4_14
REMARK    7  A    between atoms: O2_12  and  C27_13
REMARK    8  A    between atoms: C20_16  and  C24_18
REMARK    9  A    between atoms: C16_19  and  C7_20
REMARK   10  A    between atoms: C18_23  and  O3_26
REMARK   11  A    between atoms: C12_24  and  O1_28
REMARK   12  A    between atoms: O1_28  and  C26_29
REMARK                            x       y       z     vdW  Elec       q    Type
REMARK                         _______ _______ _______ _____ _____    ______ ____
ROOT
ATOM      1  C9  UNK     0       0.336  -2.626   0.549  0.00  0.00    +0.000 C 
ENDROOT
BRANCH   1   2
ATOM      2  C21 UNK     0      -0.808  -2.688   1.533  0.00  0.00    +0.000 C 
ATOM      3  O6  UNK     0      -0.808  -3.563   2.442  0.00  0.00    +0.000 OA
BRANCH   2   4
ATOM      4  C25 UNK     0      -1.922  -1.717   1.499  0.00  0.00    +0.000 C 
ATOM      5  C17 UNK     0      -1.917  -0.620   0.726  0.00  0.00    +0.000 C 
BRANCH   5   6
ATOM      6  C8  UNK     0      -3.021   0.371   0.701  0.00  0.00    +0.000 A 
ATOM      7  C11 UNK     0      -2.744   1.678   0.268  0.00  0.00    +0.000 A 
ATOM      8  C13 UNK     0      -3.760   2.652   0.217  0.00  0.00    +0.000 A 
ATOM      9  C19 UNK     0      -5.065   2.304   0.591  0.00  0.00    +0.000 A 
ATOM     10  C23 UNK     0      -5.351   0.998   1.007  0.00  0.00    +0.000 A 
ATOM     11  C15 UNK     0      -4.341   0.036   1.058  0.00  0.00    +0.000 A 
BRANCH   8  12
ATOM     12  O2  UNK     0      -3.514   3.970  -0.199  0.00  0.00    +0.000 OA
ATOM     13  C27 UNK     0      -2.240   4.463  -0.604  0.00  0.00    +0.000 C 
ENDBRANCH   8  12
BRANCH   9  14
ATOM     14  O4  UNK     0      -6.075   3.264   0.543  0.00  0.00    +0.000 OA
ATOM     15  H41 UNK     0      -7.029   3.043   0.805  0.00  0.00    +0.000 HD
ENDBRANCH   9  14
ENDBRANCH   5   6
ENDBRANCH   2   4
ENDBRANCH   1   2
BRANCH   1  16
ATOM     16  C20 UNK     0       1.157  -3.892   0.525  0.00  0.00    +0.000 C 
ATOM     17  O5  UNK     0       0.584  -4.992   0.304  0.00  0.00    +0.000 OA
BRANCH  16  18
ATOM     18  C24 UNK     0       2.607  -3.896   0.810  0.00  0.00    +0.000 C 
ATOM     19  C16 UNK     0       3.490  -2.991   0.361  0.00  0.00    +0.000 C 
BRANCH  19  20
ATOM     20  C7  UNK     0       3.200  -1.939  -0.638  0.00  0.00    +0.000 A 
ATOM     21  C14 UNK     0       2.495  -2.227  -1.817  0.00  0.00    +0.000 A 
ATOM     22  C22 UNK     0       2.245  -1.221  -2.750  0.00  0.00    +0.000 A 
ATOM     23  C18 UNK     0       2.712   0.079  -2.533  0.00  0.00    +0.000 A 
ATOM     24  C12 UNK     0       3.448   0.378  -1.372  0.00  0.00    +0.000 A 
ATOM     25  C10 UNK     0       3.695  -0.643  -0.432  0.00  0.00    +0.000 A 
BRANCH  23  26
ATOM     26  O3  UNK     0       2.438   1.061  -3.485  0.00  0.00    +0.000 OA
ATOM     27  H40 UNK     0       2.750   2.018  -3.379  0.00  0.00    +0.000 HD
ENDBRANCH  23  26
BRANCH  24  28
ATOM     28  O1  UNK     0       3.917   1.689  -1.186  0.00  0.00    +0.000 OA
ATOM     29  C26 UNK     0       4.669   2.126  -0.058  0.00  0.00    +0.000 C 
ENDBRANCH  24  28
ENDBRANCH  19  20
ENDBRANCH  16  18
ENDBRANCH   1  16
TORSDOF 10
