REMARK  Name = C:\Users\Maximilian\Desktop\Conformers\converted_pdb\conformers_pdb\Circumin_conf_47.pdb
REMARK  12 active torsions:
REMARK  status: ('A' for Active; 'I' for Inactive)
REMARK    1  A    between atoms: C9_1  and  C21_2
REMARK    2  A    between atoms: C9_1  and  C20_16
REMARK    3  A    between atoms: C21_2  and  C25_4
REMARK    4  A    between atoms: C17_5  and  C8_6
REMARK    5  A    between atoms: C13_8  and  O2_12
REMARK    6  A    between atoms: C19_9  and  O4_14
REMARK    7  A    between atoms: O2_12  and  C27_13
REMARK    8  A    between atoms: C20_16  and  C24_18
REMARK    9  A    between atoms: C16_19  and  C7_20
REMARK   10  A    between atoms: C18_23  and  O3_26
REMARK   11  A    between atoms: C12_24  and  O1_28
REMARK   12  A    between atoms: O1_28  and  C26_29
REMARK                            x       y       z     vdW  Elec       q    Type
REMARK                         _______ _______ _______ _____ _____    ______ ____
ROOT
ATOM      1  C9  UNK     0      -0.363  -3.658   1.229  0.00  0.00    +0.000 C 
ENDROOT
BRANCH   1   2
ATOM      2  C21 UNK     0       0.355  -3.247  -0.021  0.00  0.00    +0.000 C 
ATOM      3  O6  UNK     0      -0.048  -3.680  -1.136  0.00  0.00    +0.000 OA
BRANCH   2   4
ATOM      4  C25 UNK     0       1.486  -2.300   0.057  0.00  0.00    +0.000 C 
ATOM      5  C17 UNK     0       2.064  -1.784  -1.036  0.00  0.00    +0.000 C 
BRANCH   5   6
ATOM      6  C8  UNK     0       3.166  -0.792  -0.988  0.00  0.00    +0.000 A 
ATOM      7  C11 UNK     0       3.373   0.040  -2.101  0.00  0.00    +0.000 A 
ATOM      8  C13 UNK     0       4.401   1.004  -2.102  0.00  0.00    +0.000 A 
ATOM      9  C19 UNK     0       5.236   1.120  -0.976  0.00  0.00    +0.000 A 
ATOM     10  C23 UNK     0       5.045   0.281   0.125  0.00  0.00    +0.000 A 
ATOM     11  C15 UNK     0       4.024  -0.671   0.121  0.00  0.00    +0.000 A 
BRANCH   8  12
ATOM     12  O2  UNK     0       4.620   1.857  -3.197  0.00  0.00    +0.000 OA
ATOM     13  C27 UNK     0       3.860   1.841  -4.399  0.00  0.00    +0.000 C 
ENDBRANCH   8  12
BRANCH   9  14
ATOM     14  O4  UNK     0       6.264   2.061  -0.934  0.00  0.00    +0.000 OA
ATOM     15  H41 UNK     0       6.450   2.692  -1.704  0.00  0.00    +0.000 HD
ENDBRANCH   9  14
ENDBRANCH   5   6
ENDBRANCH   2   4
ENDBRANCH   1   2
BRANCH   1  16
ATOM     16  C20 UNK     0      -1.336  -2.589   1.625  0.00  0.00    +0.000 C 
ATOM     17  O5  UNK     0      -2.546  -2.700   1.289  0.00  0.00    +0.000 OA
BRANCH  16  18
ATOM     18  C24 UNK     0      -0.870  -1.418   2.397  0.00  0.00    +0.000 C 
ATOM     19  C16 UNK     0      -1.419  -0.194   2.347  0.00  0.00    +0.000 C 
BRANCH  19  20
ATOM     20  C7  UNK     0      -2.464   0.232   1.391  0.00  0.00    +0.000 A 
ATOM     21  C14 UNK     0      -2.359  -0.055   0.020  0.00  0.00    +0.000 A 
ATOM     22  C22 UNK     0      -3.341   0.386  -0.868  0.00  0.00    +0.000 A 
ATOM     23  C18 UNK     0      -4.426   1.141  -0.405  0.00  0.00    +0.000 A 
ATOM     24  C12 UNK     0      -4.525   1.468   0.956  0.00  0.00    +0.000 A 
ATOM     25  C10 UNK     0      -3.532   1.017   1.849  0.00  0.00    +0.000 A 
BRANCH  23  26
ATOM     26  O3  UNK     0      -5.409   1.577  -1.292  0.00  0.00    +0.000 OA
ATOM     27  H40 UNK     0      -5.368   1.356  -2.281  0.00  0.00    +0.000 HD
ENDBRANCH  23  26
BRANCH  24  28
ATOM     28  O1  UNK     0      -5.618   2.240   1.380  0.00  0.00    +0.000 OA
ATOM     29  C26 UNK     0      -5.838   2.657   2.723  0.00  0.00    +0.000 C 
ENDBRANCH  24  28
ENDBRANCH  19  20
ENDBRANCH  16  18
ENDBRANCH   1  16
TORSDOF 10
