REMARK  Name = C:\Users\Maximilian\Desktop\Conformers\converted_pdb\conformers_pdb\Circumin_conf_3.pdb
REMARK  12 active torsions:
REMARK  status: ('A' for Active; 'I' for Inactive)
REMARK    1  A    between atoms: C9_1  and  C21_2
REMARK    2  A    between atoms: C9_1  and  C20_16
REMARK    3  A    between atoms: C21_2  and  C25_4
REMARK    4  A    between atoms: C17_5  and  C8_6
REMARK    5  A    between atoms: C13_8  and  O2_12
REMARK    6  A    between atoms: C19_9  and  O4_14
REMARK    7  A    between atoms: O2_12  and  C27_13
REMARK    8  A    between atoms: C20_16  and  C24_18
REMARK    9  A    between atoms: C16_19  and  C7_20
REMARK   10  A    between atoms: C18_23  and  O3_26
REMARK   11  A    between atoms: C12_24  and  O1_28
REMARK   12  A    between atoms: O1_28  and  C26_29
REMARK                            x       y       z     vdW  Elec       q    Type
REMARK                         _______ _______ _______ _____ _____    ______ ____
ROOT
ATOM      1  C9  UNK     0      -0.133  -0.318   2.496  0.00  0.00    +0.000 C 
ENDROOT
BRANCH   1   2
ATOM      2  C21 UNK     0       1.264  -0.011   2.972  0.00  0.00    +0.000 C 
ATOM      3  O6  UNK     0       1.428   0.345   4.170  0.00  0.00    +0.000 OA
BRANCH   2   4
ATOM      4  C25 UNK     0       2.453  -0.086   2.093  0.00  0.00    +0.000 C 
ATOM      5  C17 UNK     0       2.391  -0.401   0.790  0.00  0.00    +0.000 C 
BRANCH   5   6
ATOM      6  C8  UNK     0       3.582  -0.481  -0.091  0.00  0.00    +0.000 A 
ATOM      7  C11 UNK     0       4.767   0.234   0.172  0.00  0.00    +0.000 A 
ATOM      8  C13 UNK     0       5.873   0.138  -0.698  0.00  0.00    +0.000 A 
ATOM      9  C19 UNK     0       5.779  -0.672  -1.843  0.00  0.00    +0.000 A 
ATOM     10  C23 UNK     0       4.597  -1.366  -2.113  0.00  0.00    +0.000 A 
ATOM     11  C15 UNK     0       3.506  -1.268  -1.250  0.00  0.00    +0.000 A 
BRANCH   8  12
ATOM     12  O2  UNK     0       7.070   0.833  -0.458  0.00  0.00    +0.000 OA
ATOM     13  C27 UNK     0       7.302   1.684   0.660  0.00  0.00    +0.000 C 
ENDBRANCH   8  12
BRANCH   9  14
ATOM     14  O4  UNK     0       6.850  -0.798  -2.727  0.00  0.00    +0.000 OA
ATOM     15  H41 UNK     0       7.730  -0.318  -2.582  0.00  0.00    +0.000 HD
ENDBRANCH   9  14
ENDBRANCH   5   6
ENDBRANCH   2   4
ENDBRANCH   1   2
BRANCH   1  16
ATOM     16  C20 UNK     0      -0.703   0.777   1.624  0.00  0.00    +0.000 C 
ATOM     17  O5  UNK     0      -0.127   1.898   1.569  0.00  0.00    +0.000 OA
BRANCH  16  18
ATOM     18  C24 UNK     0      -1.947   0.597   0.845  0.00  0.00    +0.000 C 
ATOM     19  C16 UNK     0      -2.717  -0.499   0.925  0.00  0.00    +0.000 C 
BRANCH  19  20
ATOM     20  C7  UNK     0      -3.959  -0.687   0.136  0.00  0.00    +0.000 A 
ATOM     21  C14 UNK     0      -4.412  -1.994  -0.100  0.00  0.00    +0.000 A 
ATOM     22  C22 UNK     0      -5.580  -2.220  -0.829  0.00  0.00    +0.000 A 
ATOM     23  C18 UNK     0      -6.323  -1.142  -1.325  0.00  0.00    +0.000 A 
ATOM     24  C12 UNK     0      -5.900   0.172  -1.086  0.00  0.00    +0.000 A 
ATOM     25  C10 UNK     0      -4.719   0.396  -0.349  0.00  0.00    +0.000 A 
BRANCH  23  26
ATOM     26  O3  UNK     0      -7.488  -1.369  -2.056  0.00  0.00    +0.000 OA
ATOM     27  H40 UNK     0      -7.821  -2.308  -2.246  0.00  0.00    +0.000 HD
ENDBRANCH  23  26
BRANCH  24  28
ATOM     28  O1  UNK     0      -6.679   1.225  -1.591  0.00  0.00    +0.000 OA
ATOM     29  C26 UNK     0      -6.372   2.607  -1.429  0.00  0.00    +0.000 C 
ENDBRANCH  24  28
ENDBRANCH  19  20
ENDBRANCH  16  18
ENDBRANCH   1  16
TORSDOF 10
