REMARK  Name = C:\Users\Maximilian\Desktop\Conformers\converted_pdb\conformers_pdb\Circumin_conf_35.pdb
REMARK  12 active torsions:
REMARK  status: ('A' for Active; 'I' for Inactive)
REMARK    1  A    between atoms: C9_1  and  C21_2
REMARK    2  A    between atoms: C9_1  and  C20_16
REMARK    3  A    between atoms: C21_2  and  C25_4
REMARK    4  A    between atoms: C17_5  and  C8_6
REMARK    5  A    between atoms: C13_8  and  O2_12
REMARK    6  A    between atoms: C19_9  and  O4_14
REMARK    7  A    between atoms: O2_12  and  C27_13
REMARK    8  A    between atoms: C20_16  and  C24_18
REMARK    9  A    between atoms: C16_19  and  C7_20
REMARK   10  A    between atoms: C18_23  and  O3_26
REMARK   11  A    between atoms: C12_24  and  O1_28
REMARK   12  A    between atoms: O1_28  and  C26_29
REMARK                            x       y       z     vdW  Elec       q    Type
REMARK                         _______ _______ _______ _____ _____    ______ ____
ROOT
ATOM      1  C9  UNK     0      -0.570  -2.914   0.097  0.00  0.00    +0.000 C 
ENDROOT
BRANCH   1   2
ATOM      2  C21 UNK     0      -1.560  -1.796  -0.020  0.00  0.00    +0.000 C 
ATOM      3  O6  UNK     0      -2.425  -1.649   0.885  0.00  0.00    +0.000 OA
BRANCH   2   4
ATOM      4  C25 UNK     0      -1.445  -0.821  -1.127  0.00  0.00    +0.000 C 
ATOM      5  C17 UNK     0      -2.405   0.035  -1.514  0.00  0.00    +0.000 C 
BRANCH   5   6
ATOM      6  C8  UNK     0      -3.800   0.029  -1.027  0.00  0.00    +0.000 A 
ATOM      7  C11 UNK     0      -4.403   1.238  -0.652  0.00  0.00    +0.000 A 
ATOM      8  C13 UNK     0      -5.745   1.267  -0.222  0.00  0.00    +0.000 A 
ATOM      9  C19 UNK     0      -6.484   0.075  -0.197  0.00  0.00    +0.000 A 
ATOM     10  C23 UNK     0      -5.892  -1.128  -0.602  0.00  0.00    +0.000 A 
ATOM     11  C15 UNK     0      -4.561  -1.151  -1.024  0.00  0.00    +0.000 A 
BRANCH   8  12
ATOM     12  O2  UNK     0      -6.376   2.454   0.183  0.00  0.00    +0.000 OA
ATOM     13  C27 UNK     0      -5.751   3.733   0.203  0.00  0.00    +0.000 C 
ENDBRANCH   8  12
BRANCH   9  14
ATOM     14  O4  UNK     0      -7.811   0.097   0.227  0.00  0.00    +0.000 OA
ATOM     15  H41 UNK     0      -8.373  -0.747   0.254  0.00  0.00    +0.000 HD
ENDBRANCH   9  14
ENDBRANCH   5   6
ENDBRANCH   2   4
ENDBRANCH   1   2
BRANCH   1  16
ATOM     16  C20 UNK     0       0.618  -2.468   0.895  0.00  0.00    +0.000 C 
ATOM     17  O5  UNK     0       0.591  -2.578   2.151  0.00  0.00    +0.000 OA
BRANCH  16  18
ATOM     18  C24 UNK     0       1.785  -1.869   0.217  0.00  0.00    +0.000 C 
ATOM     19  C16 UNK     0       2.828  -1.372   0.896  0.00  0.00    +0.000 C 
BRANCH  19  20
ATOM     20  C7  UNK     0       4.005  -0.750   0.244  0.00  0.00    +0.000 A 
ATOM     21  C14 UNK     0       4.403  -1.086  -1.064  0.00  0.00    +0.000 A 
ATOM     22  C22 UNK     0       5.530  -0.491  -1.634  0.00  0.00    +0.000 A 
ATOM     23  C18 UNK     0       6.281   0.442  -0.909  0.00  0.00    +0.000 A 
ATOM     24  C12 UNK     0       5.908   0.780   0.399  0.00  0.00    +0.000 A 
ATOM     25  C10 UNK     0       4.772   0.174   0.972  0.00  0.00    +0.000 A 
BRANCH  23  26
ATOM     26  O3  UNK     0       7.404   1.037  -1.481  0.00  0.00    +0.000 OA
ATOM     27  H40 UNK     0       7.701   0.813  -2.424  0.00  0.00    +0.000 HD
ENDBRANCH  23  26
BRANCH  24  28
ATOM     28  O1  UNK     0       6.688   1.717   1.095  0.00  0.00    +0.000 OA
ATOM     29  C26 UNK     0       6.419   2.167   2.419  0.00  0.00    +0.000 C 
ENDBRANCH  24  28
ENDBRANCH  19  20
ENDBRANCH  16  18
ENDBRANCH   1  16
TORSDOF 10
