REMARK  Name = C:\Users\Maximilian\Desktop\Conformers\converted_pdb\conformers_pdb\Circumin_conf_20.pdb
REMARK  12 active torsions:
REMARK  status: ('A' for Active; 'I' for Inactive)
REMARK    1  A    between atoms: C9_1  and  C21_2
REMARK    2  A    between atoms: C9_1  and  C20_16
REMARK    3  A    between atoms: C21_2  and  C25_4
REMARK    4  A    between atoms: C17_5  and  C8_6
REMARK    5  A    between atoms: C13_8  and  O2_12
REMARK    6  A    between atoms: C19_9  and  O4_14
REMARK    7  A    between atoms: O2_12  and  C27_13
REMARK    8  A    between atoms: C20_16  and  C24_18
REMARK    9  A    between atoms: C16_19  and  C7_20
REMARK   10  A    between atoms: C18_23  and  O3_26
REMARK   11  A    between atoms: C12_24  and  O1_28
REMARK   12  A    between atoms: O1_28  and  C26_29
REMARK                            x       y       z     vdW  Elec       q    Type
REMARK                         _______ _______ _______ _____ _____    ______ ____
ROOT
ATOM      1  C9  UNK     0       0.821  -1.545  -2.617  0.00  0.00    +0.000 C 
ENDROOT
BRANCH   1   2
ATOM      2  C21 UNK     0      -0.597  -2.003  -2.408  0.00  0.00    +0.000 C 
ATOM      3  O6  UNK     0      -1.070  -2.861  -3.200  0.00  0.00    +0.000 OA
BRANCH   2   4
ATOM      4  C25 UNK     0      -1.482  -1.468  -1.348  0.00  0.00    +0.000 C 
ATOM      5  C17 UNK     0      -1.099  -0.555  -0.442  0.00  0.00    +0.000 C 
BRANCH   5   6
ATOM      6  C8  UNK     0      -1.983  -0.025   0.626  0.00  0.00    +0.000 A 
ATOM      7  C11 UNK     0      -3.389  -0.054   0.533  0.00  0.00    +0.000 A 
ATOM      8  C13 UNK     0      -4.190   0.466   1.570  0.00  0.00    +0.000 A 
ATOM      9  C19 UNK     0      -3.571   1.031   2.700  0.00  0.00    +0.000 A 
ATOM     10  C23 UNK     0      -2.178   1.079   2.782  0.00  0.00    +0.000 A 
ATOM     11  C15 UNK     0      -1.390   0.561   1.754  0.00  0.00    +0.000 A 
BRANCH   8  12
ATOM     12  O2  UNK     0      -5.593   0.442   1.510  0.00  0.00    +0.000 OA
ATOM     13  C27 UNK     0      -6.348  -0.101   0.431  0.00  0.00    +0.000 C 
ENDBRANCH   8  12
BRANCH   9  14
ATOM     14  O4  UNK     0      -4.327   1.553   3.750  0.00  0.00    +0.000 OA
ATOM     15  H41 UNK     0      -5.340   1.542   3.745  0.00  0.00    +0.000 HD
ENDBRANCH   9  14
ENDBRANCH   5   6
ENDBRANCH   2   4
ENDBRANCH   1   2
BRANCH   1  16
ATOM     16  C20 UNK     0       0.847  -0.311  -3.480  0.00  0.00    +0.000 C 
ATOM     17  O5  UNK     0       0.737  -0.447  -4.728  0.00  0.00    +0.000 OA
BRANCH  16  18
ATOM     18  C24 UNK     0       0.831   1.059  -2.925  0.00  0.00    +0.000 C 
ATOM     19  C16 UNK     0       1.595   1.509  -1.918  0.00  0.00    +0.000 C 
BRANCH  19  20
ATOM     20  C7  UNK     0       2.698   0.762  -1.281  0.00  0.00    +0.000 A 
ATOM     21  C14 UNK     0       3.664   0.091  -2.047  0.00  0.00    +0.000 A 
ATOM     22  C22 UNK     0       4.702  -0.600  -1.419  0.00  0.00    +0.000 A 
ATOM     23  C18 UNK     0       4.793  -0.621  -0.021  0.00  0.00    +0.000 A 
ATOM     24  C12 UNK     0       3.846   0.062   0.756  0.00  0.00    +0.000 A 
ATOM     25  C10 UNK     0       2.805   0.763   0.117  0.00  0.00    +0.000 A 
BRANCH  23  26
ATOM     26  O3  UNK     0       5.827  -1.315   0.605  0.00  0.00    +0.000 OA
ATOM     27  H40 UNK     0       6.539  -1.800   0.074  0.00  0.00    +0.000 HD
ENDBRANCH  23  26
BRANCH  24  28
ATOM     28  O1  UNK     0       3.974   0.022   2.153  0.00  0.00    +0.000 OA
ATOM     29  C26 UNK     0       3.078   0.652   3.063  0.00  0.00    +0.000 C 
ENDBRANCH  24  28
ENDBRANCH  19  20
ENDBRANCH  16  18
ENDBRANCH   1  16
TORSDOF 10
