REMARK  Name = C:\Users\Maximilian\Desktop\Conformers\converted_pdb\conformers_pdb\Circumin_conf_58.pdb
REMARK  12 active torsions:
REMARK  status: ('A' for Active; 'I' for Inactive)
REMARK    1  A    between atoms: C9_1  and  C21_2
REMARK    2  A    between atoms: C9_1  and  C20_16
REMARK    3  A    between atoms: C21_2  and  C25_4
REMARK    4  A    between atoms: C17_5  and  C8_6
REMARK    5  A    between atoms: C13_8  and  O2_12
REMARK    6  A    between atoms: C19_9  and  O4_14
REMARK    7  A    between atoms: O2_12  and  C27_13
REMARK    8  A    between atoms: C20_16  and  C24_18
REMARK    9  A    between atoms: C16_19  and  C7_20
REMARK   10  A    between atoms: C18_23  and  O3_26
REMARK   11  A    between atoms: C12_24  and  O1_28
REMARK   12  A    between atoms: O1_28  and  C26_29
REMARK                            x       y       z     vdW  Elec       q    Type
REMARK                         _______ _______ _______ _____ _____    ______ ____
ROOT
ATOM      1  C9  UNK     0      -0.536  -0.856   2.921  0.00  0.00    +0.000 C 
ENDROOT
BRANCH   1   2
ATOM      2  C21 UNK     0       0.411   0.025   2.160  0.00  0.00    +0.000 C 
ATOM      3  O6  UNK     0       0.068   1.206   1.882  0.00  0.00    +0.000 OA
BRANCH   2   4
ATOM      4  C25 UNK     0       1.727  -0.496   1.738  0.00  0.00    +0.000 C 
ATOM      5  C17 UNK     0       2.585   0.236   1.014  0.00  0.00    +0.000 C 
BRANCH   5   6
ATOM      6  C8  UNK     0       3.908  -0.260   0.558  0.00  0.00    +0.000 A 
ATOM      7  C11 UNK     0       4.521   0.370  -0.539  0.00  0.00    +0.000 A 
ATOM      8  C13 UNK     0       5.781  -0.055  -1.006  0.00  0.00    +0.000 A 
ATOM      9  C19 UNK     0       6.432  -1.118  -0.355  0.00  0.00    +0.000 A 
ATOM     10  C23 UNK     0       5.832  -1.735   0.746  0.00  0.00    +0.000 A 
ATOM     11  C15 UNK     0       4.584  -1.311   1.205  0.00  0.00    +0.000 A 
BRANCH   8  12
ATOM     12  O2  UNK     0       6.409   0.551  -2.106  0.00  0.00    +0.000 OA
ATOM     13  C27 UNK     0       5.863   1.632  -2.855  0.00  0.00    +0.000 C 
ENDBRANCH   8  12
BRANCH   9  14
ATOM     14  O4  UNK     0       7.679  -1.571  -0.784  0.00  0.00    +0.000 OA
ATOM     15  H41 UNK     0       8.160  -1.161  -1.575  0.00  0.00    +0.000 HD
ENDBRANCH   9  14
ENDBRANCH   5   6
ENDBRANCH   2   4
ENDBRANCH   1   2
BRANCH   1  16
ATOM     16  C20 UNK     0      -1.079  -1.946   2.036  0.00  0.00    +0.000 C 
ATOM     17  O5  UNK     0      -0.615  -3.110   2.164  0.00  0.00    +0.000 OA
BRANCH  16  18
ATOM     18  C24 UNK     0      -2.107  -1.713   0.996  0.00  0.00    +0.000 C 
ATOM     19  C16 UNK     0      -2.692  -0.526   0.780  0.00  0.00    +0.000 C 
BRANCH  19  20
ATOM     20  C7  UNK     0      -3.723  -0.297  -0.262  0.00  0.00    +0.000 A 
ATOM     21  C14 UNK     0      -3.828  -1.106  -1.409  0.00  0.00    +0.000 A 
ATOM     22  C22 UNK     0      -4.805  -0.844  -2.371  0.00  0.00    +0.000 A 
ATOM     23  C18 UNK     0      -5.685   0.233  -2.211  0.00  0.00    +0.000 A 
ATOM     24  C12 UNK     0      -5.586   1.060  -1.085  0.00  0.00    +0.000 A 
ATOM     25  C10 UNK     0      -4.598   0.793  -0.116  0.00  0.00    +0.000 A 
BRANCH  23  26
ATOM     26  O3  UNK     0      -6.661   0.491  -3.172  0.00  0.00    +0.000 OA
ATOM     27  H40 UNK     0      -6.758  -0.087  -3.999  0.00  0.00    +0.000 HD
ENDBRANCH  23  26
BRANCH  24  28
ATOM     28  O1  UNK     0      -6.483   2.133  -0.963  0.00  0.00    +0.000 OA
ATOM     29  C26 UNK     0      -6.498   3.053   0.124  0.00  0.00    +0.000 C 
ENDBRANCH  24  28
ENDBRANCH  19  20
ENDBRANCH  16  18
ENDBRANCH   1  16
TORSDOF 10
