REMARK  Name = C:\Users\Maximilian\Desktop\Conformers\converted_pdb\conformers_pdb\Circumin_conf_53.pdb
REMARK  12 active torsions:
REMARK  status: ('A' for Active; 'I' for Inactive)
REMARK    1  A    between atoms: C9_1  and  C21_2
REMARK    2  A    between atoms: C9_1  and  C20_16
REMARK    3  A    between atoms: C21_2  and  C25_4
REMARK    4  A    between atoms: C17_5  and  C8_6
REMARK    5  A    between atoms: C13_8  and  O2_12
REMARK    6  A    between atoms: C19_9  and  O4_14
REMARK    7  A    between atoms: O2_12  and  C27_13
REMARK    8  A    between atoms: C20_16  and  C24_18
REMARK    9  A    between atoms: C16_19  and  C7_20
REMARK   10  A    between atoms: C18_23  and  O3_26
REMARK   11  A    between atoms: C12_24  and  O1_28
REMARK   12  A    between atoms: O1_28  and  C26_29
REMARK                            x       y       z     vdW  Elec       q    Type
REMARK                         _______ _______ _______ _____ _____    ______ ____
ROOT
ATOM      1  C9  UNK     0      -0.557   1.995   0.907  0.00  0.00    +0.000 C 
ENDROOT
BRANCH   1   2
ATOM      2  C21 UNK     0      -0.999   2.512  -0.439  0.00  0.00    +0.000 C 
ATOM      3  O6  UNK     0      -0.365   2.178  -1.475  0.00  0.00    +0.000 OA
BRANCH   2   4
ATOM      4  C25 UNK     0      -2.137   3.443  -0.584  0.00  0.00    +0.000 C 
ATOM      5  C17 UNK     0      -3.303   3.356   0.075  0.00  0.00    +0.000 C 
BRANCH   5   6
ATOM      6  C8  UNK     0      -3.723   2.215   0.917  0.00  0.00    +0.000 A 
ATOM      7  C11 UNK     0      -3.553   0.888   0.486  0.00  0.00    +0.000 A 
ATOM      8  C13 UNK     0      -3.951  -0.188   1.304  0.00  0.00    +0.000 A 
ATOM      9  C19 UNK     0      -4.580   0.081   2.534  0.00  0.00    +0.000 A 
ATOM     10  C23 UNK     0      -4.797   1.403   2.934  0.00  0.00    +0.000 A 
ATOM     11  C15 UNK     0      -4.373   2.464   2.131  0.00  0.00    +0.000 A 
BRANCH   8  12
ATOM     12  O2  UNK     0      -3.730  -1.524   0.931  0.00  0.00    +0.000 OA
ATOM     13  C27 UNK     0      -3.054  -1.929  -0.255  0.00  0.00    +0.000 C 
ENDBRANCH   8  12
BRANCH   9  14
ATOM     14  O4  UNK     0      -4.999  -0.953   3.370  0.00  0.00    +0.000 OA
ATOM     15  H41 UNK     0      -4.867  -1.928   3.131  0.00  0.00    +0.000 HD
ENDBRANCH   9  14
ENDBRANCH   5   6
ENDBRANCH   2   4
ENDBRANCH   1   2
BRANCH   1  16
ATOM     16  C20 UNK     0       0.941   2.056   1.053  0.00  0.00    +0.000 C 
ATOM     17  O5  UNK     0       1.452   3.083   1.575  0.00  0.00    +0.000 OA
BRANCH  16  18
ATOM     18  C24 UNK     0       1.848   0.980   0.589  0.00  0.00    +0.000 C 
ATOM     19  C16 UNK     0       1.435  -0.098  -0.097  0.00  0.00    +0.000 C 
BRANCH  19  20
ATOM     20  C7  UNK     0       2.341  -1.178  -0.557  0.00  0.00    +0.000 A 
ATOM     21  C14 UNK     0       1.791  -2.439  -0.833  0.00  0.00    +0.000 A 
ATOM     22  C22 UNK     0       2.600  -3.483  -1.281  0.00  0.00    +0.000 A 
ATOM     23  C18 UNK     0       3.970  -3.287  -1.472  0.00  0.00    +0.000 A 
ATOM     24  C12 UNK     0       4.543  -2.027  -1.219  0.00  0.00    +0.000 A 
ATOM     25  C10 UNK     0       3.720  -0.975  -0.767  0.00  0.00    +0.000 A 
BRANCH  23  26
ATOM     26  O3  UNK     0       4.748  -4.355  -1.918  0.00  0.00    +0.000 OA
ATOM     27  H40 UNK     0       5.745  -4.267  -2.076  0.00  0.00    +0.000 HD
ENDBRANCH  23  26
BRANCH  24  28
ATOM     28  O1  UNK     0       5.921  -1.857  -1.429  0.00  0.00    +0.000 OA
ATOM     29  C26 UNK     0       6.630  -0.643  -1.204  0.00  0.00    +0.000 C 
ENDBRANCH  24  28
ENDBRANCH  19  20
ENDBRANCH  16  18
ENDBRANCH   1  16
TORSDOF 10
