REMARK  Name = C:\Users\Maximilian\Desktop\Conformers\converted_pdb\conformers_pdb\Circumin_conf_40.pdb
REMARK  12 active torsions:
REMARK  status: ('A' for Active; 'I' for Inactive)
REMARK    1  A    between atoms: C9_1  and  C21_2
REMARK    2  A    between atoms: C9_1  and  C20_16
REMARK    3  A    between atoms: C21_2  and  C25_4
REMARK    4  A    between atoms: C17_5  and  C8_6
REMARK    5  A    between atoms: C13_8  and  O2_12
REMARK    6  A    between atoms: C19_9  and  O4_14
REMARK    7  A    between atoms: O2_12  and  C27_13
REMARK    8  A    between atoms: C20_16  and  C24_18
REMARK    9  A    between atoms: C16_19  and  C7_20
REMARK   10  A    between atoms: C18_23  and  O3_26
REMARK   11  A    between atoms: C12_24  and  O1_28
REMARK   12  A    between atoms: O1_28  and  C26_29
REMARK                            x       y       z     vdW  Elec       q    Type
REMARK                         _______ _______ _______ _____ _____    ______ ____
ROOT
ATOM      1  C9  UNK     0       0.948   0.902   0.891  0.00  0.00    +0.000 C 
ENDROOT
BRANCH   1   2
ATOM      2  C21 UNK     0      -0.462   0.475   1.177  0.00  0.00    +0.000 C 
ATOM      3  O6  UNK     0      -1.247   1.291   1.731  0.00  0.00    +0.000 OA
BRANCH   2   4
ATOM      4  C25 UNK     0      -0.918  -0.885   0.828  0.00  0.00    +0.000 C 
ATOM      5  C17 UNK     0      -2.172  -1.300   1.067  0.00  0.00    +0.000 C 
BRANCH   5   6
ATOM      6  C8  UNK     0      -2.679  -2.646   0.700  0.00  0.00    +0.000 A 
ATOM      7  C11 UNK     0      -4.066  -2.831   0.578  0.00  0.00    +0.000 A 
ATOM      8  C13 UNK     0      -4.600  -4.087   0.228  0.00  0.00    +0.000 A 
ATOM      9  C19 UNK     0      -3.732  -5.166   0.011  0.00  0.00    +0.000 A 
ATOM     10  C23 UNK     0      -2.350  -4.995   0.151  0.00  0.00    +0.000 A 
ATOM     11  C15 UNK     0      -1.825  -3.748   0.497  0.00  0.00    +0.000 A 
BRANCH   8  12
ATOM     12  O2  UNK     0      -5.980  -4.301   0.088  0.00  0.00    +0.000 OA
ATOM     13  C27 UNK     0      -6.976  -3.301   0.284  0.00  0.00    +0.000 C 
ENDBRANCH   8  12
BRANCH   9  14
ATOM     14  O4  UNK     0      -4.253  -6.410  -0.343  0.00  0.00    +0.000 OA
ATOM     15  H41 UNK     0      -3.652  -7.210  -0.512  0.00  0.00    +0.000 HD
ENDBRANCH   9  14
ENDBRANCH   5   6
ENDBRANCH   2   4
ENDBRANCH   1   2
BRANCH   1  16
ATOM     16  C20 UNK     0       1.740   0.994   2.169  0.00  0.00    +0.000 C 
ATOM     17  O5  UNK     0       1.777  -0.001   2.941  0.00  0.00    +0.000 OA
BRANCH  16  18
ATOM     18  C24 UNK     0       2.414   2.241   2.588  0.00  0.00    +0.000 C 
ATOM     19  C16 UNK     0       3.098   3.062   1.776  0.00  0.00    +0.000 C 
BRANCH  19  20
ATOM     20  C7  UNK     0       3.464   2.758   0.376  0.00  0.00    +0.000 A 
ATOM     21  C14 UNK     0       4.026   1.520   0.026  0.00  0.00    +0.000 A 
ATOM     22  C22 UNK     0       4.384   1.260  -1.297  0.00  0.00    +0.000 A 
ATOM     23  C18 UNK     0       4.201   2.238  -2.283  0.00  0.00    +0.000 A 
ATOM     24  C12 UNK     0       3.655   3.484  -1.946  0.00  0.00    +0.000 A 
ATOM     25  C10 UNK     0       3.303   3.744  -0.607  0.00  0.00    +0.000 A 
BRANCH  23  26
ATOM     26  O3  UNK     0       4.562   1.978  -3.604  0.00  0.00    +0.000 OA
ATOM     27  H40 UNK     0       4.951   1.086  -3.883  0.00  0.00    +0.000 HD
ENDBRANCH  23  26
BRANCH  24  28
ATOM     28  O1  UNK     0       3.479   4.434  -2.964  0.00  0.00    +0.000 OA
ATOM     29  C26 UNK     0       2.853   5.702  -2.785  0.00  0.00    +0.000 C 
ENDBRANCH  24  28
ENDBRANCH  19  20
ENDBRANCH  16  18
ENDBRANCH   1  16
TORSDOF 10
