REMARK  Name = C:\Users\Maximilian\Desktop\Conformers\converted_pdb\conformers_pdb\Circumin_conf_70.pdb
REMARK  12 active torsions:
REMARK  status: ('A' for Active; 'I' for Inactive)
REMARK    1  A    between atoms: C9_1  and  C21_2
REMARK    2  A    between atoms: C9_1  and  C20_16
REMARK    3  A    between atoms: C21_2  and  C25_4
REMARK    4  A    between atoms: C17_5  and  C8_6
REMARK    5  A    between atoms: C13_8  and  O2_12
REMARK    6  A    between atoms: C19_9  and  O4_14
REMARK    7  A    between atoms: O2_12  and  C27_13
REMARK    8  A    between atoms: C20_16  and  C24_18
REMARK    9  A    between atoms: C16_19  and  C7_20
REMARK   10  A    between atoms: C18_23  and  O3_26
REMARK   11  A    between atoms: C12_24  and  O1_28
REMARK   12  A    between atoms: O1_28  and  C26_29
REMARK                            x       y       z     vdW  Elec       q    Type
REMARK                         _______ _______ _______ _____ _____    ______ ____
ROOT
ATOM      1  C9  UNK     0       1.026   1.781  -1.381  0.00  0.00    +0.000 C 
ENDROOT
BRANCH   1   2
ATOM      2  C21 UNK     0       1.478   0.867  -0.284  0.00  0.00    +0.000 C 
ATOM      3  O6  UNK     0       1.722  -0.340  -0.556  0.00  0.00    +0.000 OA
BRANCH   2   4
ATOM      4  C25 UNK     0       1.514   1.356   1.112  0.00  0.00    +0.000 C 
ATOM      5  C17 UNK     0       2.129   0.746   2.138  0.00  0.00    +0.000 C 
BRANCH   5   6
ATOM      6  C8  UNK     0       3.027  -0.422   2.025  0.00  0.00    +0.000 A 
ATOM      7  C11 UNK     0       4.088  -0.438   1.104  0.00  0.00    +0.000 A 
ATOM      8  C13 UNK     0       4.961  -1.542   1.034  0.00  0.00    +0.000 A 
ATOM      9  C19 UNK     0       4.775  -2.620   1.919  0.00  0.00    +0.000 A 
ATOM     10  C23 UNK     0       3.739  -2.585   2.857  0.00  0.00    +0.000 A 
ATOM     11  C15 UNK     0       2.876  -1.490   2.917  0.00  0.00    +0.000 A 
BRANCH   8  12
ATOM     12  O2  UNK     0       6.015  -1.599   0.108  0.00  0.00    +0.000 OA
ATOM     13  C27 UNK     0       6.306  -0.584  -0.847  0.00  0.00    +0.000 C 
ENDBRANCH   8  12
BRANCH   9  14
ATOM     14  O4  UNK     0       5.614  -3.734   1.884  0.00  0.00    +0.000 OA
ATOM     15  H41 UNK     0       6.382  -3.811   1.228  0.00  0.00    +0.000 HD
ENDBRANCH   9  14
ENDBRANCH   5   6
ENDBRANCH   2   4
ENDBRANCH   1   2
BRANCH   1  16
ATOM     16  C20 UNK     0      -0.464   1.711  -1.515  0.00  0.00    +0.000 C 
ATOM     17  O5  UNK     0      -0.974   0.875  -2.309  0.00  0.00    +0.000 OA
BRANCH  16  18
ATOM     18  C24 UNK     0      -1.321   2.616  -0.719  0.00  0.00    +0.000 C 
ATOM     19  C16 UNK     0      -2.580   2.346  -0.338  0.00  0.00    +0.000 C 
BRANCH  19  20
ATOM     20  C7  UNK     0      -3.249   1.036  -0.480  0.00  0.00    +0.000 A 
ATOM     21  C14 UNK     0      -2.610  -0.153  -0.092  0.00  0.00    +0.000 A 
ATOM     22  C22 UNK     0      -3.275  -1.375  -0.194  0.00  0.00    +0.000 A 
ATOM     23  C18 UNK     0      -4.591  -1.428  -0.663  0.00  0.00    +0.000 A 
ATOM     24  C12 UNK     0      -5.257  -0.243  -1.028  0.00  0.00    +0.000 A 
ATOM     25  C10 UNK     0      -4.579   0.988  -0.921  0.00  0.00    +0.000 A 
BRANCH  23  26
ATOM     26  O3  UNK     0      -5.223  -2.668  -0.755  0.00  0.00    +0.000 OA
ATOM     27  H40 UNK     0      -6.175  -2.765  -1.087  0.00  0.00    +0.000 HD
ENDBRANCH  23  26
BRANCH  24  28
ATOM     28  O1  UNK     0      -6.582  -0.325  -1.486  0.00  0.00    +0.000 OA
ATOM     29  C26 UNK     0      -7.369   0.793  -1.885  0.00  0.00    +0.000 C 
ENDBRANCH  24  28
ENDBRANCH  19  20
ENDBRANCH  16  18
ENDBRANCH   1  16
TORSDOF 10
