REMARK  Name = C:\Users\Maximilian\Desktop\Conformers\converted_pdb\conformers_pdb\Circumin_conf_74.pdb
REMARK  12 active torsions:
REMARK  status: ('A' for Active; 'I' for Inactive)
REMARK    1  A    between atoms: C9_1  and  C21_2
REMARK    2  A    between atoms: C9_1  and  C20_16
REMARK    3  A    between atoms: C21_2  and  C25_4
REMARK    4  A    between atoms: C17_5  and  C8_6
REMARK    5  A    between atoms: C13_8  and  O2_12
REMARK    6  A    between atoms: C19_9  and  O4_14
REMARK    7  A    between atoms: O2_12  and  C27_13
REMARK    8  A    between atoms: C20_16  and  C24_18
REMARK    9  A    between atoms: C16_19  and  C7_20
REMARK   10  A    between atoms: C18_23  and  O3_26
REMARK   11  A    between atoms: C12_24  and  O1_28
REMARK   12  A    between atoms: O1_28  and  C26_29
REMARK                            x       y       z     vdW  Elec       q    Type
REMARK                         _______ _______ _______ _____ _____    ______ ____
ROOT
ATOM      1  C9  UNK     0       0.312   0.433  -2.720  0.00  0.00    +0.000 C 
ENDROOT
BRANCH   1   2
ATOM      2  C21 UNK     0      -0.309   1.267  -1.639  0.00  0.00    +0.000 C 
ATOM      3  O6  UNK     0       0.383   2.150  -1.062  0.00  0.00    +0.000 OA
BRANCH   2   4
ATOM      4  C25 UNK     0      -1.716   1.042  -1.249  0.00  0.00    +0.000 C 
ATOM      5  C17 UNK     0      -2.314   1.756  -0.285  0.00  0.00    +0.000 C 
BRANCH   5   6
ATOM      6  C8  UNK     0      -3.725   1.557   0.130  0.00  0.00    +0.000 A 
ATOM      7  C11 UNK     0      -4.403   0.335  -0.057  0.00  0.00    +0.000 A 
ATOM      8  C13 UNK     0      -5.740   0.185   0.363  0.00  0.00    +0.000 A 
ATOM      9  C19 UNK     0      -6.392   1.260   0.981  0.00  0.00    +0.000 A 
ATOM     10  C23 UNK     0      -5.716   2.469   1.184  0.00  0.00    +0.000 A 
ATOM     11  C15 UNK     0      -4.392   2.614   0.767  0.00  0.00    +0.000 A 
BRANCH   8  12
ATOM     12  O2  UNK     0      -6.449  -1.015   0.189  0.00  0.00    +0.000 OA
ATOM     13  C27 UNK     0      -5.917  -2.186  -0.421  0.00  0.00    +0.000 C 
ENDBRANCH   8  12
BRANCH   9  14
ATOM     14  O4  UNK     0      -7.716   1.118   1.395  0.00  0.00    +0.000 OA
ATOM     15  H41 UNK     0      -8.214   1.875   1.847  0.00  0.00    +0.000 HD
ENDBRANCH   9  14
ENDBRANCH   5   6
ENDBRANCH   2   4
ENDBRANCH   1   2
BRANCH   1  16
ATOM     16  C20 UNK     0       0.490  -0.990  -2.260  0.00  0.00    +0.000 C 
ATOM     17  O5  UNK     0      -0.313  -1.863  -2.684  0.00  0.00    +0.000 OA
BRANCH  16  18
ATOM     18  C24 UNK     0       1.538  -1.410  -1.302  0.00  0.00    +0.000 C 
ATOM     19  C16 UNK     0       2.465  -0.580  -0.801  0.00  0.00    +0.000 C 
BRANCH  19  20
ATOM     20  C7  UNK     0       3.513  -1.005   0.159  0.00  0.00    +0.000 A 
ATOM     21  C14 UNK     0       3.355  -2.121   1.002  0.00  0.00    +0.000 A 
ATOM     22  C22 UNK     0       4.363  -2.476   1.899  0.00  0.00    +0.000 A 
ATOM     23  C18 UNK     0       5.538  -1.724   1.981  0.00  0.00    +0.000 A 
ATOM     24  C12 UNK     0       5.709  -0.596   1.160  0.00  0.00    +0.000 A 
ATOM     25  C10 UNK     0       4.688  -0.241   0.256  0.00  0.00    +0.000 A 
BRANCH  23  26
ATOM     26  O3  UNK     0       6.524  -2.112   2.888  0.00  0.00    +0.000 OA
ATOM     27  H40 UNK     0       7.394  -1.605   2.990  0.00  0.00    +0.000 HD
ENDBRANCH  23  26
BRANCH  24  28
ATOM     28  O1  UNK     0       6.897   0.145   1.268  0.00  0.00    +0.000 OA
ATOM     29  C26 UNK     0       7.199   1.305   0.500  0.00  0.00    +0.000 C 
ENDBRANCH  24  28
ENDBRANCH  19  20
ENDBRANCH  16  18
ENDBRANCH   1  16
TORSDOF 10
