REMARK  Name = C:\Users\Maximilian\Desktop\Conformers\converted_pdb\conformers_pdb\Circumin_conf_69.pdb
REMARK  12 active torsions:
REMARK  status: ('A' for Active; 'I' for Inactive)
REMARK    1  A    between atoms: C9_1  and  C21_2
REMARK    2  A    between atoms: C9_1  and  C20_16
REMARK    3  A    between atoms: C21_2  and  C25_4
REMARK    4  A    between atoms: C17_5  and  C8_6
REMARK    5  A    between atoms: C13_8  and  O2_12
REMARK    6  A    between atoms: C19_9  and  O4_14
REMARK    7  A    between atoms: O2_12  and  C27_13
REMARK    8  A    between atoms: C20_16  and  C24_18
REMARK    9  A    between atoms: C16_19  and  C7_20
REMARK   10  A    between atoms: C18_23  and  O3_26
REMARK   11  A    between atoms: C12_24  and  O1_28
REMARK   12  A    between atoms: O1_28  and  C26_29
REMARK                            x       y       z     vdW  Elec       q    Type
REMARK                         _______ _______ _______ _____ _____    ______ ____
ROOT
ATOM      1  C9  UNK     0      -0.150  -2.166   1.369  0.00  0.00    +0.000 C 
ENDROOT
BRANCH   1   2
ATOM      2  C21 UNK     0       0.484  -0.841   1.726  0.00  0.00    +0.000 C 
ATOM      3  O6  UNK     0      -0.109  -0.056   2.515  0.00  0.00    +0.000 OA
BRANCH   2   4
ATOM      4  C25 UNK     0       1.807  -0.436   1.207  0.00  0.00    +0.000 C 
ATOM      5  C17 UNK     0       2.590  -1.238   0.469  0.00  0.00    +0.000 C 
BRANCH   5   6
ATOM      6  C8  UNK     0       3.913  -0.829  -0.063  0.00  0.00    +0.000 A 
ATOM      7  C11 UNK     0       4.696   0.174   0.544  0.00  0.00    +0.000 A 
ATOM      8  C13 UNK     0       5.954   0.525   0.012  0.00  0.00    +0.000 A 
ATOM      9  C19 UNK     0       6.429  -0.145  -1.130  0.00  0.00    +0.000 A 
ATOM     10  C23 UNK     0       5.661  -1.152  -1.720  0.00  0.00    +0.000 A 
ATOM     11  C15 UNK     0       4.418  -1.496  -1.189  0.00  0.00    +0.000 A 
BRANCH   8  12
ATOM     12  O2  UNK     0       6.753   1.525   0.590  0.00  0.00    +0.000 OA
ATOM     13  C27 UNK     0       6.394   2.283   1.741  0.00  0.00    +0.000 C 
ENDBRANCH   8  12
BRANCH   9  14
ATOM     14  O4  UNK     0       7.666   0.174  -1.690  0.00  0.00    +0.000 OA
ATOM     15  H41 UNK     0       8.264   0.894  -1.304  0.00  0.00    +0.000 HD
ENDBRANCH   9  14
ENDBRANCH   5   6
ENDBRANCH   2   4
ENDBRANCH   1   2
BRANCH   1  16
ATOM     16  C20 UNK     0      -1.596  -2.247   1.787  0.00  0.00    +0.000 C 
ATOM     17  O5  UNK     0      -1.895  -2.942   2.795  0.00  0.00    +0.000 OA
BRANCH  16  18
ATOM     18  C24 UNK     0      -2.683  -1.532   1.080  0.00  0.00    +0.000 C 
ATOM     19  C16 UNK     0      -2.476  -0.724   0.029  0.00  0.00    +0.000 C 
BRANCH  19  20
ATOM     20  C7  UNK     0      -3.564  -0.010  -0.683  0.00  0.00    +0.000 A 
ATOM     21  C14 UNK     0      -3.346   0.392  -2.010  0.00  0.00    +0.000 A 
ATOM     22  C22 UNK     0      -4.337   1.074  -2.716  0.00  0.00    +0.000 A 
ATOM     23  C18 UNK     0      -5.559   1.378  -2.105  0.00  0.00    +0.000 A 
ATOM     24  C12 UNK     0      -5.791   1.004  -0.775  0.00  0.00    +0.000 A 
ATOM     25  C10 UNK     0      -4.788   0.314  -0.064  0.00  0.00    +0.000 A 
BRANCH  23  26
ATOM     26  O3  UNK     0      -6.549   2.058  -2.813  0.00  0.00    +0.000 OA
ATOM     27  H40 UNK     0      -6.412   2.343  -3.776  0.00  0.00    +0.000 HD
ENDBRANCH  23  26
BRANCH  24  28
ATOM     28  O1  UNK     0      -7.025   1.338  -0.194  0.00  0.00    +0.000 OA
ATOM     29  C26 UNK     0      -7.401   1.021   1.143  0.00  0.00    +0.000 C 
ENDBRANCH  24  28
ENDBRANCH  19  20
ENDBRANCH  16  18
ENDBRANCH   1  16
TORSDOF 10
