REMARK  Name = C:\Users\Maximilian\Desktop\Conformers\converted_pdb\conformers_pdb\Circumin_conf_55.pdb
REMARK  12 active torsions:
REMARK  status: ('A' for Active; 'I' for Inactive)
REMARK    1  A    between atoms: C9_1  and  C21_2
REMARK    2  A    between atoms: C9_1  and  C20_16
REMARK    3  A    between atoms: C21_2  and  C25_4
REMARK    4  A    between atoms: C17_5  and  C8_6
REMARK    5  A    between atoms: C13_8  and  O2_12
REMARK    6  A    between atoms: C19_9  and  O4_14
REMARK    7  A    between atoms: O2_12  and  C27_13
REMARK    8  A    between atoms: C20_16  and  C24_18
REMARK    9  A    between atoms: C16_19  and  C7_20
REMARK   10  A    between atoms: C18_23  and  O3_26
REMARK   11  A    between atoms: C12_24  and  O1_28
REMARK   12  A    between atoms: O1_28  and  C26_29
REMARK                            x       y       z     vdW  Elec       q    Type
REMARK                         _______ _______ _______ _____ _____    ______ ____
ROOT
ATOM      1  C9  UNK     0       0.069  -0.423   1.363  0.00  0.00    +0.000 C 
ENDROOT
BRANCH   1   2
ATOM      2  C21 UNK     0      -0.653  -0.513   0.040  0.00  0.00    +0.000 C 
ATOM      3  O6  UNK     0       0.007  -0.600  -1.031  0.00  0.00    +0.000 OA
BRANCH   2   4
ATOM      4  C25 UNK     0      -2.129  -0.542  -0.050  0.00  0.00    +0.000 C 
ATOM      5  C17 UNK     0      -2.931  -0.643   1.021  0.00  0.00    +0.000 C 
BRANCH   5   6
ATOM      6  C8  UNK     0      -4.411  -0.688   0.935  0.00  0.00    +0.000 A 
ATOM      7  C11 UNK     0      -5.122  -0.131  -0.147  0.00  0.00    +0.000 A 
ATOM      8  C13 UNK     0      -6.531  -0.187  -0.187  0.00  0.00    +0.000 A 
ATOM      9  C19 UNK     0      -7.225  -0.795   0.873  0.00  0.00    +0.000 A 
ATOM     10  C23 UNK     0      -6.521  -1.329   1.955  0.00  0.00    +0.000 A 
ATOM     11  C15 UNK     0      -5.127  -1.272   1.990  0.00  0.00    +0.000 A 
BRANCH   8  12
ATOM     12  O2  UNK     0      -7.266   0.352  -1.256  0.00  0.00    +0.000 OA
ATOM     13  C27 UNK     0      -6.693   0.987  -2.394  0.00  0.00    +0.000 C 
ENDBRANCH   8  12
BRANCH   9  14
ATOM     14  O4  UNK     0      -8.618  -0.875   0.872  0.00  0.00    +0.000 OA
ATOM     15  H41 UNK     0      -9.179  -0.505   0.114  0.00  0.00    +0.000 HD
ENDBRANCH   9  14
ENDBRANCH   5   6
ENDBRANCH   2   4
ENDBRANCH   1   2
BRANCH   1  16
ATOM     16  C20 UNK     0       1.523  -0.085   1.196  0.00  0.00    +0.000 C 
ATOM     17  O5  UNK     0       2.382  -1.003   1.293  0.00  0.00    +0.000 OA
BRANCH  16  18
ATOM     18  C24 UNK     0       1.928   1.318   0.952  0.00  0.00    +0.000 C 
ATOM     19  C16 UNK     0       3.119   1.716   0.478  0.00  0.00    +0.000 C 
BRANCH  19  20
ATOM     20  C7  UNK     0       4.169   0.823  -0.055  0.00  0.00    +0.000 A 
ATOM     21  C14 UNK     0       3.875  -0.137  -1.036  0.00  0.00    +0.000 A 
ATOM     22  C22 UNK     0       4.889  -0.939  -1.561  0.00  0.00    +0.000 A 
ATOM     23  C18 UNK     0       6.212  -0.778  -1.130  0.00  0.00    +0.000 A 
ATOM     24  C12 UNK     0       6.527   0.198  -0.173  0.00  0.00    +0.000 A 
ATOM     25  C10 UNK     0       5.498   1.005   0.354  0.00  0.00    +0.000 A 
BRANCH  23  26
ATOM     26  O3  UNK     0       7.225  -1.581  -1.653  0.00  0.00    +0.000 OA
ATOM     27  H40 UNK     0       7.031  -2.294  -2.347  0.00  0.00    +0.000 HD
ENDBRANCH  23  26
BRANCH  24  28
ATOM     28  O1  UNK     0       7.865   0.336   0.227  0.00  0.00    +0.000 OA
ATOM     29  C26 UNK     0       8.326   1.281   1.187  0.00  0.00    +0.000 C 
ENDBRANCH  24  28
ENDBRANCH  19  20
ENDBRANCH  16  18
ENDBRANCH   1  16
TORSDOF 10
