REMARK  Name = C:\Users\Maximilian\Desktop\Conformers\converted_pdb\conformers_pdb\Circumin_conf_23.pdb
REMARK  12 active torsions:
REMARK  status: ('A' for Active; 'I' for Inactive)
REMARK    1  A    between atoms: C9_1  and  C21_2
REMARK    2  A    between atoms: C9_1  and  C20_16
REMARK    3  A    between atoms: C21_2  and  C25_4
REMARK    4  A    between atoms: C17_5  and  C8_6
REMARK    5  A    between atoms: C13_8  and  O2_12
REMARK    6  A    between atoms: C19_9  and  O4_14
REMARK    7  A    between atoms: O2_12  and  C27_13
REMARK    8  A    between atoms: C20_16  and  C24_18
REMARK    9  A    between atoms: C16_19  and  C7_20
REMARK   10  A    between atoms: C18_23  and  O3_26
REMARK   11  A    between atoms: C12_24  and  O1_28
REMARK   12  A    between atoms: O1_28  and  C26_29
REMARK                            x       y       z     vdW  Elec       q    Type
REMARK                         _______ _______ _______ _____ _____    ______ ____
ROOT
ATOM      1  C9  UNK     0      -1.305  -1.657   0.586  0.00  0.00    +0.000 C 
ENDROOT
BRANCH   1   2
ATOM      2  C21 UNK     0      -2.398  -2.683   0.418  0.00  0.00    +0.000 C 
ATOM      3  O6  UNK     0      -2.918  -3.197   1.444  0.00  0.00    +0.000 OA
BRANCH   2   4
ATOM      4  C25 UNK     0      -2.809  -3.184  -0.909  0.00  0.00    +0.000 C 
ATOM      5  C17 UNK     0      -3.073  -2.421  -1.981  0.00  0.00    +0.000 C 
BRANCH   5   6
ATOM      6  C8  UNK     0      -3.154  -0.943  -1.984  0.00  0.00    +0.000 A 
ATOM      7  C11 UNK     0      -3.801  -0.238  -0.954  0.00  0.00    +0.000 A 
ATOM      8  C13 UNK     0      -3.862   1.170  -0.975  0.00  0.00    +0.000 A 
ATOM      9  C19 UNK     0      -3.302   1.864  -2.063  0.00  0.00    +0.000 A 
ATOM     10  C23 UNK     0      -2.692   1.158  -3.105  0.00  0.00    +0.000 A 
ATOM     11  C15 UNK     0      -2.623  -0.236  -3.070  0.00  0.00    +0.000 A 
BRANCH   8  12
ATOM     12  O2  UNK     0      -4.464   1.903   0.059  0.00  0.00    +0.000 OA
ATOM     13  C27 UNK     0      -5.026   1.328   1.235  0.00  0.00    +0.000 C 
ENDBRANCH   8  12
BRANCH   9  14
ATOM     14  O4  UNK     0      -3.342   3.257  -2.128  0.00  0.00    +0.000 OA
ATOM     15  H41 UNK     0      -3.767   3.819  -1.399  0.00  0.00    +0.000 HD
ENDBRANCH   9  14
ENDBRANCH   5   6
ENDBRANCH   2   4
ENDBRANCH   1   2
BRANCH   1  16
ATOM     16  C20 UNK     0      -0.024  -2.252   1.121  0.00  0.00    +0.000 C 
ATOM     17  O5  UNK     0       0.004  -3.455   1.505  0.00  0.00    +0.000 OA
BRANCH  16  18
ATOM     18  C24 UNK     0       1.223  -1.463   1.215  0.00  0.00    +0.000 C 
ATOM     19  C16 UNK     0       1.288  -0.151   0.943  0.00  0.00    +0.000 C 
BRANCH  19  20
ATOM     20  C7  UNK     0       2.541   0.639   1.029  0.00  0.00    +0.000 A 
ATOM     21  C14 UNK     0       2.453   2.020   1.254  0.00  0.00    +0.000 A 
ATOM     22  C22 UNK     0       3.606   2.802   1.328  0.00  0.00    +0.000 A 
ATOM     23  C18 UNK     0       4.867   2.221   1.164  0.00  0.00    +0.000 A 
ATOM     24  C12 UNK     0       4.979   0.842   0.915  0.00  0.00    +0.000 A 
ATOM     25  C10 UNK     0       3.810   0.056   0.845  0.00  0.00    +0.000 A 
BRANCH  23  26
ATOM     26  O3  UNK     0       5.998   3.034   1.245  0.00  0.00    +0.000 OA
ATOM     27  H40 UNK     0       6.936   2.667   1.135  0.00  0.00    +0.000 HD
ENDBRANCH  23  26
BRANCH  24  28
ATOM     28  O1  UNK     0       6.258   0.289   0.737  0.00  0.00    +0.000 OA
ATOM     29  C26 UNK     0       6.515  -1.085   0.464  0.00  0.00    +0.000 C 
ENDBRANCH  24  28
ENDBRANCH  19  20
ENDBRANCH  16  18
ENDBRANCH   1  16
TORSDOF 10
