REMARK  Name = C:\Users\Maximilian\Desktop\Conformers\converted_pdb\conformers_pdb\Circumin_conf_71.pdb
REMARK  12 active torsions:
REMARK  status: ('A' for Active; 'I' for Inactive)
REMARK    1  A    between atoms: C9_1  and  C21_2
REMARK    2  A    between atoms: C9_1  and  C20_16
REMARK    3  A    between atoms: C21_2  and  C25_4
REMARK    4  A    between atoms: C17_5  and  C8_6
REMARK    5  A    between atoms: C13_8  and  O2_12
REMARK    6  A    between atoms: C19_9  and  O4_14
REMARK    7  A    between atoms: O2_12  and  C27_13
REMARK    8  A    between atoms: C20_16  and  C24_18
REMARK    9  A    between atoms: C16_19  and  C7_20
REMARK   10  A    between atoms: C18_23  and  O3_26
REMARK   11  A    between atoms: C12_24  and  O1_28
REMARK   12  A    between atoms: O1_28  and  C26_29
REMARK                            x       y       z     vdW  Elec       q    Type
REMARK                         _______ _______ _______ _____ _____    ______ ____
ROOT
ATOM      1  C9  UNK     0       0.172  -1.295   1.040  0.00  0.00    +0.000 C 
ENDROOT
BRANCH   1   2
ATOM      2  C21 UNK     0       0.921   0.016   1.072  0.00  0.00    +0.000 C 
ATOM      3  O6  UNK     0       0.303   1.089   1.314  0.00  0.00    +0.000 OA
BRANCH   2   4
ATOM      4  C25 UNK     0       2.377   0.094   0.823  0.00  0.00    +0.000 C 
ATOM      5  C17 UNK     0       3.129  -0.971   0.505  0.00  0.00    +0.000 C 
BRANCH   5   6
ATOM      6  C8  UNK     0       4.587  -0.895   0.242  0.00  0.00    +0.000 A 
ATOM      7  C11 UNK     0       5.400   0.122   0.782  0.00  0.00    +0.000 A 
ATOM      8  C13 UNK     0       6.784   0.151   0.517  0.00  0.00    +0.000 A 
ATOM      9  C19 UNK     0       7.352  -0.849  -0.284  0.00  0.00    +0.000 A 
ATOM     10  C23 UNK     0       6.550  -1.870  -0.807  0.00  0.00    +0.000 A 
ATOM     11  C15 UNK     0       5.181  -1.896  -0.541  0.00  0.00    +0.000 A 
BRANCH   8  12
ATOM     12  O2  UNK     0       7.625   1.151   1.031  0.00  0.00    +0.000 OA
ATOM     13  C27 UNK     0       7.189   2.228   1.854  0.00  0.00    +0.000 C 
ENDBRANCH   8  12
BRANCH   9  14
ATOM     14  O4  UNK     0       8.720  -0.823  -0.553  0.00  0.00    +0.000 OA
ATOM     15  H41 UNK     0       9.162  -1.532  -1.127  0.00  0.00    +0.000 HD
ENDBRANCH   9  14
ENDBRANCH   5   6
ENDBRANCH   2   4
ENDBRANCH   1   2
BRANCH   1  16
ATOM     16  C20 UNK     0      -1.281  -1.137   1.391  0.00  0.00    +0.000 C 
ATOM     17  O5  UNK     0      -1.648  -1.302   2.587  0.00  0.00    +0.000 OA
BRANCH  16  18
ATOM     18  C24 UNK     0      -2.255  -0.751   0.350  0.00  0.00    +0.000 C 
ATOM     19  C16 UNK     0      -3.554  -0.565   0.622  0.00  0.00    +0.000 C 
BRANCH  19  20
ATOM     20  C7  UNK     0      -4.559  -0.162  -0.393  0.00  0.00    +0.000 A 
ATOM     21  C14 UNK     0      -4.373  -0.390  -1.770  0.00  0.00    +0.000 A 
ATOM     22  C22 UNK     0      -5.352  -0.003  -2.687  0.00  0.00    +0.000 A 
ATOM     23  C18 UNK     0      -6.531   0.606  -2.253  0.00  0.00    +0.000 A 
ATOM     24  C12 UNK     0      -6.744   0.830  -0.881  0.00  0.00    +0.000 A 
ATOM     25  C10 UNK     0      -5.753   0.437   0.041  0.00  0.00    +0.000 A 
BRANCH  23  26
ATOM     26  O3  UNK     0      -7.484   0.980  -3.200  0.00  0.00    +0.000 OA
ATOM     27  H40 UNK     0      -8.357   1.424  -2.942  0.00  0.00    +0.000 HD
ENDBRANCH  23  26
BRANCH  24  28
ATOM     28  O1  UNK     0      -7.941   1.439  -0.472  0.00  0.00    +0.000 OA
ATOM     29  C26 UNK     0      -8.283   1.722   0.881  0.00  0.00    +0.000 C 
ENDBRANCH  24  28
ENDBRANCH  19  20
ENDBRANCH  16  18
ENDBRANCH   1  16
TORSDOF 10
