REMARK  Name = C:\Users\Maximilian\Desktop\Conformers\converted_pdb\conformers_pdb\Circumin_conf_62.pdb
REMARK  12 active torsions:
REMARK  status: ('A' for Active; 'I' for Inactive)
REMARK    1  A    between atoms: C9_1  and  C21_2
REMARK    2  A    between atoms: C9_1  and  C20_16
REMARK    3  A    between atoms: C21_2  and  C25_4
REMARK    4  A    between atoms: C17_5  and  C8_6
REMARK    5  A    between atoms: C13_8  and  O2_12
REMARK    6  A    between atoms: C19_9  and  O4_14
REMARK    7  A    between atoms: O2_12  and  C27_13
REMARK    8  A    between atoms: C20_16  and  C24_18
REMARK    9  A    between atoms: C16_19  and  C7_20
REMARK   10  A    between atoms: C18_23  and  O3_26
REMARK   11  A    between atoms: C12_24  and  O1_28
REMARK   12  A    between atoms: O1_28  and  C26_29
REMARK                            x       y       z     vdW  Elec       q    Type
REMARK                         _______ _______ _______ _____ _____    ______ ____
ROOT
ATOM      1  C9  UNK     0      -0.020   0.706  -1.623  0.00  0.00    +0.000 C 
ENDROOT
BRANCH   1   2
ATOM      2  C21 UNK     0       1.109   0.948  -0.668  0.00  0.00    +0.000 C 
ATOM      3  O6  UNK     0       1.995   0.061  -0.528  0.00  0.00    +0.000 OA
BRANCH   2   4
ATOM      4  C25 UNK     0       1.120   2.169   0.168  0.00  0.00    +0.000 C 
ATOM      5  C17 UNK     0       2.194   2.671   0.799  0.00  0.00    +0.000 C 
BRANCH   5   6
ATOM      6  C8  UNK     0       3.585   2.206   0.619  0.00  0.00    +0.000 A 
ATOM      7  C11 UNK     0       4.133   2.030  -0.663  0.00  0.00    +0.000 A 
ATOM      8  C13 UNK     0       5.478   1.637  -0.820  0.00  0.00    +0.000 A 
ATOM      9  C19 UNK     0       6.275   1.447   0.318  0.00  0.00    +0.000 A 
ATOM     10  C23 UNK     0       5.736   1.650   1.596  0.00  0.00    +0.000 A 
ATOM     11  C15 UNK     0       4.402   2.037   1.745  0.00  0.00    +0.000 A 
BRANCH   8  12
ATOM     12  O2  UNK     0       6.054   1.432  -2.084  0.00  0.00    +0.000 OA
ATOM     13  C27 UNK     0       5.355   1.564  -3.318  0.00  0.00    +0.000 C 
ENDBRANCH   8  12
BRANCH   9  14
ATOM     14  O4  UNK     0       7.605   1.058   0.171  0.00  0.00    +0.000 OA
ATOM     15  H41 UNK     0       8.203   0.900   0.974  0.00  0.00    +0.000 HD
ENDBRANCH   9  14
ENDBRANCH   5   6
ENDBRANCH   2   4
ENDBRANCH   1   2
BRANCH   1  16
ATOM     16  C20 UNK     0      -1.176   0.071  -0.911  0.00  0.00    +0.000 C 
ATOM     17  O5  UNK     0      -1.117  -1.155  -0.621  0.00  0.00    +0.000 OA
BRANCH  16  18
ATOM     18  C24 UNK     0      -2.320   0.903  -0.472  0.00  0.00    +0.000 C 
ATOM     19  C16 UNK     0      -3.522   0.441  -0.093  0.00  0.00    +0.000 C 
BRANCH  19  20
ATOM     20  C7  UNK     0      -3.976  -0.960  -0.216  0.00  0.00    +0.000 A 
ATOM     21  C14 UNK     0      -3.865  -1.654  -1.431  0.00  0.00    +0.000 A 
ATOM     22  C22 UNK     0      -4.347  -2.959  -1.541  0.00  0.00    +0.000 A 
ATOM     23  C18 UNK     0      -4.963  -3.582  -0.451  0.00  0.00    +0.000 A 
ATOM     24  C12 UNK     0      -5.109  -2.889   0.765  0.00  0.00    +0.000 A 
ATOM     25  C10 UNK     0      -4.622  -1.570   0.868  0.00  0.00    +0.000 A 
BRANCH  23  26
ATOM     26  O3  UNK     0      -5.428  -4.888  -0.597  0.00  0.00    +0.000 OA
ATOM     27  H40 UNK     0      -5.876  -5.389   0.162  0.00  0.00    +0.000 HD
ENDBRANCH  23  26
BRANCH  24  28
ATOM     28  O1  UNK     0      -5.742  -3.533   1.841  0.00  0.00    +0.000 OA
ATOM     29  C26 UNK     0      -5.952  -2.949   3.122  0.00  0.00    +0.000 C 
ENDBRANCH  24  28
ENDBRANCH  19  20
ENDBRANCH  16  18
ENDBRANCH   1  16
TORSDOF 10
