REMARK  Name = C:\Users\Maximilian\Desktop\Conformers\converted_pdb\conformers_pdb\Circumin_conf_31.pdb
REMARK  12 active torsions:
REMARK  status: ('A' for Active; 'I' for Inactive)
REMARK    1  A    between atoms: C9_1  and  C21_2
REMARK    2  A    between atoms: C9_1  and  C20_16
REMARK    3  A    between atoms: C21_2  and  C25_4
REMARK    4  A    between atoms: C17_5  and  C8_6
REMARK    5  A    between atoms: C13_8  and  O2_12
REMARK    6  A    between atoms: C19_9  and  O4_14
REMARK    7  A    between atoms: O2_12  and  C27_13
REMARK    8  A    between atoms: C20_16  and  C24_18
REMARK    9  A    between atoms: C16_19  and  C7_20
REMARK   10  A    between atoms: C18_23  and  O3_26
REMARK   11  A    between atoms: C12_24  and  O1_28
REMARK   12  A    between atoms: O1_28  and  C26_29
REMARK                            x       y       z     vdW  Elec       q    Type
REMARK                         _______ _______ _______ _____ _____    ______ ____
ROOT
ATOM      1  C9  UNK     0       0.087   0.593   0.073  0.00  0.00    +0.000 C 
ENDROOT
BRANCH   1   2
ATOM      2  C21 UNK     0      -1.400   0.765   0.199  0.00  0.00    +0.000 C 
ATOM      3  O6  UNK     0      -1.898   0.992   1.335  0.00  0.00    +0.000 OA
BRANCH   2   4
ATOM      4  C25 UNK     0      -2.254   0.696  -1.009  0.00  0.00    +0.000 C 
ATOM      5  C17 UNK     0      -3.583   0.508  -1.016  0.00  0.00    +0.000 C 
BRANCH   5   6
ATOM      6  C8  UNK     0      -4.403   0.157   0.161  0.00  0.00    +0.000 A 
ATOM      7  C11 UNK     0      -5.604   0.844   0.391  0.00  0.00    +0.000 A 
ATOM      8  C13 UNK     0      -6.430   0.498   1.480  0.00  0.00    +0.000 A 
ATOM      9  C19 UNK     0      -6.052  -0.558   2.322  0.00  0.00    +0.000 A 
ATOM     10  C23 UNK     0      -4.867  -1.264   2.074  0.00  0.00    +0.000 A 
ATOM     11  C15 UNK     0      -4.053  -0.917   0.995  0.00  0.00    +0.000 A 
BRANCH   8  12
ATOM     12  O2  UNK     0      -7.629   1.175   1.754  0.00  0.00    +0.000 OA
ATOM     13  C27 UNK     0      -8.135   2.262   0.986  0.00  0.00    +0.000 C 
ENDBRANCH   8  12
BRANCH   9  14
ATOM     14  O4  UNK     0      -6.863  -0.903   3.401  0.00  0.00    +0.000 OA
ATOM     15  H41 UNK     0      -6.618  -1.661   4.027  0.00  0.00    +0.000 HD
ENDBRANCH   9  14
ENDBRANCH   5   6
ENDBRANCH   2   4
ENDBRANCH   1   2
BRANCH   1  16
ATOM     16  C20 UNK     0       0.489  -0.859  -0.037  0.00  0.00    +0.000 C 
ATOM     17  O5  UNK     0      -0.343  -1.764   0.245  0.00  0.00    +0.000 OA
BRANCH  16  18
ATOM     18  C24 UNK     0       1.852  -1.269  -0.438  0.00  0.00    +0.000 C 
ATOM     19  C16 UNK     0       2.865  -0.404  -0.597  0.00  0.00    +0.000 C 
BRANCH  19  20
ATOM     20  C7  UNK     0       4.238  -0.811  -0.986  0.00  0.00    +0.000 A 
ATOM     21  C14 UNK     0       4.501  -2.005  -1.683  0.00  0.00    +0.000 A 
ATOM     22  C22 UNK     0       5.808  -2.341  -2.038  0.00  0.00    +0.000 A 
ATOM     23  C18 UNK     0       6.872  -1.493  -1.718  0.00  0.00    +0.000 A 
ATOM     24  C12 UNK     0       6.629  -0.287  -1.037  0.00  0.00    +0.000 A 
ATOM     25  C10 UNK     0       5.307   0.047  -0.680  0.00  0.00    +0.000 A 
BRANCH  23  26
ATOM     26  O3  UNK     0       8.164  -1.864  -2.089  0.00  0.00    +0.000 OA
ATOM     27  H40 UNK     0       8.971  -1.289  -1.883  0.00  0.00    +0.000 HD
ENDBRANCH  23  26
BRANCH  24  28
ATOM     28  O1  UNK     0       7.716   0.549  -0.733  0.00  0.00    +0.000 OA
ATOM     29  C26 UNK     0       7.612   1.794  -0.050  0.00  0.00    +0.000 C 
ENDBRANCH  24  28
ENDBRANCH  19  20
ENDBRANCH  16  18
ENDBRANCH   1  16
TORSDOF 10
