REMARK  Name = C:\Users\Maximilian\Desktop\Conformers\converted_pdb\conformers_pdb\Circumin_conf_43.pdb
REMARK  12 active torsions:
REMARK  status: ('A' for Active; 'I' for Inactive)
REMARK    1  A    between atoms: C9_1  and  C21_2
REMARK    2  A    between atoms: C9_1  and  C20_16
REMARK    3  A    between atoms: C21_2  and  C25_4
REMARK    4  A    between atoms: C17_5  and  C8_6
REMARK    5  A    between atoms: C13_8  and  O2_12
REMARK    6  A    between atoms: C19_9  and  O4_14
REMARK    7  A    between atoms: O2_12  and  C27_13
REMARK    8  A    between atoms: C20_16  and  C24_18
REMARK    9  A    between atoms: C16_19  and  C7_20
REMARK   10  A    between atoms: C18_23  and  O3_26
REMARK   11  A    between atoms: C12_24  and  O1_28
REMARK   12  A    between atoms: O1_28  and  C26_29
REMARK                            x       y       z     vdW  Elec       q    Type
REMARK                         _______ _______ _______ _____ _____    ______ ____
ROOT
ATOM      1  C9  UNK     0      -0.174   1.790  -1.353  0.00  0.00    +0.000 C 
ENDROOT
BRANCH   1   2
ATOM      2  C21 UNK     0       1.301   1.632  -1.591  0.00  0.00    +0.000 C 
ATOM      3  O6  UNK     0       1.799   2.041  -2.676  0.00  0.00    +0.000 OA
BRANCH   2   4
ATOM      4  C25 UNK     0       2.145   0.968  -0.577  0.00  0.00    +0.000 C 
ATOM      5  C17 UNK     0       3.459   0.773  -0.758  0.00  0.00    +0.000 C 
BRANCH   5   6
ATOM      6  C8  UNK     0       4.335   0.097   0.231  0.00  0.00    +0.000 A 
ATOM      7  C11 UNK     0       5.548  -0.457  -0.212  0.00  0.00    +0.000 A 
ATOM      8  C13 UNK     0       6.420  -1.102   0.688  0.00  0.00    +0.000 A 
ATOM      9  C19 UNK     0       6.070  -1.179   2.048  0.00  0.00    +0.000 A 
ATOM     10  C23 UNK     0       4.873  -0.614   2.494  0.00  0.00    +0.000 A 
ATOM     11  C15 UNK     0       4.012   0.023   1.599  0.00  0.00    +0.000 A 
BRANCH   8  12
ATOM     12  O2  UNK     0       7.633  -1.673   0.268  0.00  0.00    +0.000 OA
ATOM     13  C27 UNK     0       8.107  -1.667  -1.074  0.00  0.00    +0.000 C 
ENDBRANCH   8  12
BRANCH   9  14
ATOM     14  O4  UNK     0       6.903  -1.808   2.972  0.00  0.00    +0.000 OA
ATOM     15  H41 UNK     0       7.783  -2.233   2.705  0.00  0.00    +0.000 HD
ENDBRANCH   9  14
ENDBRANCH   5   6
ENDBRANCH   2   4
ENDBRANCH   1   2
BRANCH   1  16
ATOM     16  C20 UNK     0      -0.943   0.526  -1.659  0.00  0.00    +0.000 C 
ATOM     17  O5  UNK     0      -0.390  -0.405  -2.305  0.00  0.00    +0.000 OA
BRANCH  16  18
ATOM     18  C24 UNK     0      -2.352   0.346  -1.249  0.00  0.00    +0.000 C 
ATOM     19  C16 UNK     0      -3.095   1.326  -0.712  0.00  0.00    +0.000 C 
BRANCH  19  20
ATOM     20  C7  UNK     0      -4.513   1.153  -0.311  0.00  0.00    +0.000 A 
ATOM     21  C14 UNK     0      -5.334   2.288  -0.242  0.00  0.00    +0.000 A 
ATOM     22  C22 UNK     0      -6.671   2.173   0.139  0.00  0.00    +0.000 A 
ATOM     23  C18 UNK     0      -7.210   0.927   0.469  0.00  0.00    +0.000 A 
ATOM     24  C12 UNK     0      -6.401  -0.223   0.426  0.00  0.00    +0.000 A 
ATOM     25  C10 UNK     0      -5.050  -0.101   0.040  0.00  0.00    +0.000 A 
BRANCH  23  26
ATOM     26  O3  UNK     0      -8.552   0.851   0.842  0.00  0.00    +0.000 OA
ATOM     27  H40 UNK     0      -8.994  -0.025   1.092  0.00  0.00    +0.000 HD
ENDBRANCH  23  26
BRANCH  24  28
ATOM     28  O1  UNK     0      -6.967  -1.460   0.774  0.00  0.00    +0.000 OA
ATOM     29  C26 UNK     0      -6.267  -2.700   0.771  0.00  0.00    +0.000 C 
ENDBRANCH  24  28
ENDBRANCH  19  20
ENDBRANCH  16  18
ENDBRANCH   1  16
TORSDOF 10
