REMARK  Name = C:\Users\Maximilian\Desktop\Conformers\converted_pdb\conformers_pdb\Circumin_conf_34.pdb
REMARK  12 active torsions:
REMARK  status: ('A' for Active; 'I' for Inactive)
REMARK    1  A    between atoms: C9_1  and  C21_2
REMARK    2  A    between atoms: C9_1  and  C20_16
REMARK    3  A    between atoms: C21_2  and  C25_4
REMARK    4  A    between atoms: C17_5  and  C8_6
REMARK    5  A    between atoms: C13_8  and  O2_12
REMARK    6  A    between atoms: C19_9  and  O4_14
REMARK    7  A    between atoms: O2_12  and  C27_13
REMARK    8  A    between atoms: C20_16  and  C24_18
REMARK    9  A    between atoms: C16_19  and  C7_20
REMARK   10  A    between atoms: C18_23  and  O3_26
REMARK   11  A    between atoms: C12_24  and  O1_28
REMARK   12  A    between atoms: O1_28  and  C26_29
REMARK                            x       y       z     vdW  Elec       q    Type
REMARK                         _______ _______ _______ _____ _____    ______ ____
ROOT
ATOM      1  C9  UNK     0      -0.138   1.186  -1.253  0.00  0.00    +0.000 C 
ENDROOT
BRANCH   1   2
ATOM      2  C21 UNK     0      -0.912   1.144   0.043  0.00  0.00    +0.000 C 
ATOM      3  O6  UNK     0      -0.412   1.635   1.092  0.00  0.00    +0.000 OA
BRANCH   2   4
ATOM      4  C25 UNK     0      -2.254   0.530   0.136  0.00  0.00    +0.000 C 
ATOM      5  C17 UNK     0      -2.842  -0.111  -0.885  0.00  0.00    +0.000 C 
BRANCH   5   6
ATOM      6  C8  UNK     0      -4.182  -0.741  -0.789  0.00  0.00    +0.000 A 
ATOM      7  C11 UNK     0      -5.165  -0.286   0.112  0.00  0.00    +0.000 A 
ATOM      8  C13 UNK     0      -6.432  -0.903   0.166  0.00  0.00    +0.000 A 
ATOM      9  C19 UNK     0      -6.711  -1.975  -0.700  0.00  0.00    +0.000 A 
ATOM     10  C23 UNK     0      -5.742  -2.414  -1.606  0.00  0.00    +0.000 A 
ATOM     11  C15 UNK     0      -4.491  -1.798  -1.656  0.00  0.00    +0.000 A 
BRANCH   8  12
ATOM     12  O2  UNK     0      -7.431  -0.475   1.056  0.00  0.00    +0.000 OA
ATOM     13  C27 UNK     0      -7.285   0.597   1.982  0.00  0.00    +0.000 C 
ENDBRANCH   8  12
BRANCH   9  14
ATOM     14  O4  UNK     0      -7.950  -2.616  -0.677  0.00  0.00    +0.000 OA
ATOM     15  H41 UNK     0      -8.689  -2.341  -0.042  0.00  0.00    +0.000 HD
ENDBRANCH   9  14
ENDBRANCH   5   6
ENDBRANCH   2   4
ENDBRANCH   1   2
BRANCH   1  16
ATOM     16  C20 UNK     0       1.132   1.982  -1.140  0.00  0.00    +0.000 C 
ATOM     17  O5  UNK     0       1.127   3.201  -1.462  0.00  0.00    +0.000 OA
BRANCH  16  18
ATOM     18  C24 UNK     0       2.358   1.346  -0.616  0.00  0.00    +0.000 C 
ATOM     19  C16 UNK     0       3.508   2.020  -0.475  0.00  0.00    +0.000 C 
BRANCH  19  20
ATOM     20  C7  UNK     0       4.753   1.421   0.068  0.00  0.00    +0.000 A 
ATOM     21  C14 UNK     0       5.730   2.275   0.601  0.00  0.00    +0.000 A 
ATOM     22  C22 UNK     0       6.918   1.759   1.119  0.00  0.00    +0.000 A 
ATOM     23  C18 UNK     0       7.154   0.379   1.106  0.00  0.00    +0.000 A 
ATOM     24  C12 UNK     0       6.201  -0.492   0.563  0.00  0.00    +0.000 A 
ATOM     25  C10 UNK     0       5.003   0.033   0.037  0.00  0.00    +0.000 A 
BRANCH  23  26
ATOM     26  O3  UNK     0       8.339  -0.135   1.630  0.00  0.00    +0.000 OA
ATOM     27  H40 UNK     0       9.049   0.468   2.029  0.00  0.00    +0.000 HD
ENDBRANCH  23  26
BRANCH  24  28
ATOM     28  O1  UNK     0       6.479  -1.869   0.561  0.00  0.00    +0.000 OA
ATOM     29  C26 UNK     0       5.601  -2.869   0.056  0.00  0.00    +0.000 C 
ENDBRANCH  24  28
ENDBRANCH  19  20
ENDBRANCH  16  18
ENDBRANCH   1  16
TORSDOF 10
