REMARK  Name = C:\Users\Maximilian\Desktop\Conformers\converted_pdb\conformers_pdb\Circumin_conf_26.pdb
REMARK  12 active torsions:
REMARK  status: ('A' for Active; 'I' for Inactive)
REMARK    1  A    between atoms: C9_1  and  C21_2
REMARK    2  A    between atoms: C9_1  and  C20_16
REMARK    3  A    between atoms: C21_2  and  C25_4
REMARK    4  A    between atoms: C17_5  and  C8_6
REMARK    5  A    between atoms: C13_8  and  O2_12
REMARK    6  A    between atoms: C19_9  and  O4_14
REMARK    7  A    between atoms: O2_12  and  C27_13
REMARK    8  A    between atoms: C20_16  and  C24_18
REMARK    9  A    between atoms: C16_19  and  C7_20
REMARK   10  A    between atoms: C18_23  and  O3_26
REMARK   11  A    between atoms: C12_24  and  O1_28
REMARK   12  A    between atoms: O1_28  and  C26_29
REMARK                            x       y       z     vdW  Elec       q    Type
REMARK                         _______ _______ _______ _____ _____    ______ ____
ROOT
ATOM      1  C9  UNK     0       0.028   2.743   0.930  0.00  0.00    +0.000 C 
ENDROOT
BRANCH   1   2
ATOM      2  C21 UNK     0       1.225   3.539   0.474  0.00  0.00    +0.000 C 
ATOM      3  O6  UNK     0       1.204   4.792   0.613  0.00  0.00    +0.000 OA
BRANCH   2   4
ATOM      4  C25 UNK     0       2.417   2.921  -0.148  0.00  0.00    +0.000 C 
ATOM      5  C17 UNK     0       2.525   1.607  -0.396  0.00  0.00    +0.000 C 
BRANCH   5   6
ATOM      6  C8  UNK     0       3.720   0.982  -1.016  0.00  0.00    +0.000 A 
ATOM      7  C11 UNK     0       3.940  -0.391  -0.818  0.00  0.00    +0.000 A 
ATOM      8  C13 UNK     0       5.054  -1.035  -1.394  0.00  0.00    +0.000 A 
ATOM      9  C19 UNK     0       5.943  -0.293  -2.183  0.00  0.00    +0.000 A 
ATOM     10  C23 UNK     0       5.721   1.072  -2.397  0.00  0.00    +0.000 A 
ATOM     11  C15 UNK     0       4.617   1.706  -1.825  0.00  0.00    +0.000 A 
BRANCH   8  12
ATOM     12  O2  UNK     0       5.307  -2.403  -1.207  0.00  0.00    +0.000 OA
ATOM     13  C27 UNK     0       4.490  -3.276  -0.434  0.00  0.00    +0.000 C 
ENDBRANCH   8  12
BRANCH   9  14
ATOM     14  O4  UNK     0       7.047  -0.923  -2.754  0.00  0.00    +0.000 OA
ATOM     15  H41 UNK     0       7.709  -0.416  -3.330  0.00  0.00    +0.000 HD
ENDBRANCH   9  14
ENDBRANCH   5   6
ENDBRANCH   2   4
ENDBRANCH   1   2
BRANCH   1  16
ATOM     16  C20 UNK     0      -0.818   2.257  -0.224  0.00  0.00    +0.000 C 
ATOM     17  O5  UNK     0      -0.648   2.746  -1.375  0.00  0.00    +0.000 OA
BRANCH  16  18
ATOM     18  C24 UNK     0      -1.879   1.242  -0.051  0.00  0.00    +0.000 C 
ATOM     19  C16 UNK     0      -2.250   0.756   1.143  0.00  0.00    +0.000 C 
BRANCH  19  20
ATOM     20  C7  UNK     0      -3.306  -0.271   1.318  0.00  0.00    +0.000 A 
ATOM     21  C14 UNK     0      -3.286  -1.061   2.477  0.00  0.00    +0.000 A 
ATOM     22  C22 UNK     0      -4.263  -2.035   2.689  0.00  0.00    +0.000 A 
ATOM     23  C18 UNK     0      -5.283  -2.230   1.755  0.00  0.00    +0.000 A 
ATOM     24  C12 UNK     0      -5.336  -1.437   0.594  0.00  0.00    +0.000 A 
ATOM     25  C10 UNK     0      -4.346  -0.455   0.385  0.00  0.00    +0.000 A 
BRANCH  23  26
ATOM     26  O3  UNK     0      -6.240  -3.215   1.999  0.00  0.00    +0.000 OA
ATOM     27  H40 UNK     0      -7.002  -3.399   1.357  0.00  0.00    +0.000 HD
ENDBRANCH  23  26
BRANCH  24  28
ATOM     28  O1  UNK     0      -6.380  -1.648  -0.321  0.00  0.00    +0.000 OA
ATOM     29  C26 UNK     0      -6.551  -0.923  -1.535  0.00  0.00    +0.000 C 
ENDBRANCH  24  28
ENDBRANCH  19  20
ENDBRANCH  16  18
ENDBRANCH   1  16
TORSDOF 10
