REMARK  Name = C:\Users\Maximilian\Desktop\Conformers\converted_pdb\conformers_pdb\Circumin_conf_64.pdb
REMARK  12 active torsions:
REMARK  status: ('A' for Active; 'I' for Inactive)
REMARK    1  A    between atoms: C9_1  and  C21_2
REMARK    2  A    between atoms: C9_1  and  C20_16
REMARK    3  A    between atoms: C21_2  and  C25_4
REMARK    4  A    between atoms: C17_5  and  C8_6
REMARK    5  A    between atoms: C13_8  and  O2_12
REMARK    6  A    between atoms: C19_9  and  O4_14
REMARK    7  A    between atoms: O2_12  and  C27_13
REMARK    8  A    between atoms: C20_16  and  C24_18
REMARK    9  A    between atoms: C16_19  and  C7_20
REMARK   10  A    between atoms: C18_23  and  O3_26
REMARK   11  A    between atoms: C12_24  and  O1_28
REMARK   12  A    between atoms: O1_28  and  C26_29
REMARK                            x       y       z     vdW  Elec       q    Type
REMARK                         _______ _______ _______ _____ _____    ______ ____
ROOT
ATOM      1  C9  UNK     0       0.052   2.421  -0.353  0.00  0.00    +0.000 C 
ENDROOT
BRANCH   1   2
ATOM      2  C21 UNK     0      -0.442   2.227   1.061  0.00  0.00    +0.000 C 
ATOM      3  O6  UNK     0       0.162   2.788   2.015  0.00  0.00    +0.000 OA
BRANCH   2   4
ATOM      4  C25 UNK     0      -1.643   1.424   1.374  0.00  0.00    +0.000 C 
ATOM      5  C17 UNK     0      -2.511   1.003   0.442  0.00  0.00    +0.000 C 
BRANCH   5   6
ATOM      6  C8  UNK     0      -3.723   0.206   0.753  0.00  0.00    +0.000 A 
ATOM      7  C11 UNK     0      -4.792   0.218  -0.159  0.00  0.00    +0.000 A 
ATOM      8  C13 UNK     0      -5.960  -0.531   0.085  0.00  0.00    +0.000 A 
ATOM      9  C19 UNK     0      -6.045  -1.309   1.253  0.00  0.00    +0.000 A 
ATOM     10  C23 UNK     0      -4.978  -1.337   2.154  0.00  0.00    +0.000 A 
ATOM     11  C15 UNK     0      -3.823  -0.592   1.908  0.00  0.00    +0.000 A 
BRANCH   8  12
ATOM     12  O2  UNK     0      -7.046  -0.527  -0.806  0.00  0.00    +0.000 OA
ATOM     13  C27 UNK     0      -7.091   0.213  -2.022  0.00  0.00    +0.000 C 
ENDBRANCH   8  12
BRANCH   9  14
ATOM     14  O4  UNK     0      -7.183  -2.065   1.534  0.00  0.00    +0.000 OA
ATOM     15  H41 UNK     0      -7.986  -2.083   0.917  0.00  0.00    +0.000 HD
ENDBRANCH   9  14
ENDBRANCH   5   6
ENDBRANCH   2   4
ENDBRANCH   1   2
BRANCH   1  16
ATOM     16  C20 UNK     0       1.508   2.806  -0.399  0.00  0.00    +0.000 C 
ATOM     17  O5  UNK     0       1.808   4.009  -0.625  0.00  0.00    +0.000 OA
BRANCH  16  18
ATOM     18  C24 UNK     0       2.605   1.840  -0.170  0.00  0.00    +0.000 C 
ATOM     19  C16 UNK     0       2.402   0.558   0.173  0.00  0.00    +0.000 C 
BRANCH  19  20
ATOM     20  C7  UNK     0       3.500  -0.408   0.420  0.00  0.00    +0.000 A 
ATOM     21  C14 UNK     0       3.242  -1.524   1.230  0.00  0.00    +0.000 A 
ATOM     22  C22 UNK     0       4.242  -2.464   1.483  0.00  0.00    +0.000 A 
ATOM     23  C18 UNK     0       5.515  -2.310   0.921  0.00  0.00    +0.000 A 
ATOM     24  C12 UNK     0       5.790  -1.212   0.094  0.00  0.00    +0.000 A 
ATOM     25  C10 UNK     0       4.777  -0.265  -0.159  0.00  0.00    +0.000 A 
BRANCH  23  26
ATOM     26  O3  UNK     0       6.514  -3.247   1.177  0.00  0.00    +0.000 OA
ATOM     27  H40 UNK     0       6.346  -4.052   1.770  0.00  0.00    +0.000 HD
ENDBRANCH  23  26
BRANCH  24  28
ATOM     28  O1  UNK     0       7.075  -1.100  -0.459  0.00  0.00    +0.000 OA
ATOM     29  C26 UNK     0       7.498  -0.041  -1.312  0.00  0.00    +0.000 C 
ENDBRANCH  24  28
ENDBRANCH  19  20
ENDBRANCH  16  18
ENDBRANCH   1  16
TORSDOF 10
