REMARK  Name = C:\Users\Maximilian\Desktop\Conformers\converted_pdb\conformers_pdb\Circumin_conf_1.pdb
REMARK  12 active torsions:
REMARK  status: ('A' for Active; 'I' for Inactive)
REMARK    1  A    between atoms: C9_1  and  C21_2
REMARK    2  A    between atoms: C9_1  and  C20_16
REMARK    3  A    between atoms: C21_2  and  C25_4
REMARK    4  A    between atoms: C17_5  and  C8_6
REMARK    5  A    between atoms: C13_8  and  O2_12
REMARK    6  A    between atoms: C19_9  and  O4_14
REMARK    7  A    between atoms: O2_12  and  C27_13
REMARK    8  A    between atoms: C20_16  and  C24_18
REMARK    9  A    between atoms: C16_19  and  C7_20
REMARK   10  A    between atoms: C18_23  and  O3_26
REMARK   11  A    between atoms: C12_24  and  O1_28
REMARK   12  A    between atoms: O1_28  and  C26_29
REMARK                            x       y       z     vdW  Elec       q    Type
REMARK                         _______ _______ _______ _____ _____    ______ ____
ROOT
ATOM      1  C9  UNK     0       0.043   2.391  -0.616  0.00  0.00    +0.000 C 
ENDROOT
BRANCH   1   2
ATOM      2  C21 UNK     0       0.966   1.325  -1.127  0.00  0.00    +0.000 C 
ATOM      3  O6  UNK     0       0.528   0.476  -1.950  0.00  0.00    +0.000 OA
BRANCH   2   4
ATOM      4  C25 UNK     0       2.368   1.267  -0.663  0.00  0.00    +0.000 C 
ATOM      5  C17 UNK     0       3.214   0.309  -1.070  0.00  0.00    +0.000 C 
BRANCH   5   6
ATOM      6  C8  UNK     0       4.636   0.233  -0.645  0.00  0.00    +0.000 A 
ATOM      7  C11 UNK     0       5.306  -0.997  -0.752  0.00  0.00    +0.000 A 
ATOM      8  C13 UNK     0       6.662  -1.117  -0.390  0.00  0.00    +0.000 A 
ATOM      9  C19 UNK     0       7.352   0.011   0.072  0.00  0.00    +0.000 A 
ATOM     10  C23 UNK     0       6.694   1.243   0.174  0.00  0.00    +0.000 A 
ATOM     11  C15 UNK     0       5.348   1.356  -0.184  0.00  0.00    +0.000 A 
BRANCH   8  12
ATOM     12  O2  UNK     0       7.356  -2.335  -0.475  0.00  0.00    +0.000 OA
ATOM     13  C27 UNK     0       6.775  -3.570  -0.886  0.00  0.00    +0.000 C 
ENDBRANCH   8  12
BRANCH   9  14
ATOM     14  O4  UNK     0       8.697  -0.099   0.428  0.00  0.00    +0.000 OA
ATOM     15  H41 UNK     0       9.222   0.694   0.775  0.00  0.00    +0.000 HD
ENDBRANCH   9  14
ENDBRANCH   5   6
ENDBRANCH   2   4
ENDBRANCH   1   2
BRANCH   1  16
ATOM     16  C20 UNK     0      -0.947   1.800   0.342  0.00  0.00    +0.000 C 
ATOM     17  O5  UNK     0      -0.578   1.530   1.518  0.00  0.00    +0.000 OA
BRANCH  16  18
ATOM     18  C24 UNK     0      -2.328   1.510  -0.096  0.00  0.00    +0.000 C 
ATOM     19  C16 UNK     0      -3.228   0.935   0.716  0.00  0.00    +0.000 C 
BRANCH  19  20
ATOM     20  C7  UNK     0      -4.626   0.643   0.312  0.00  0.00    +0.000 A 
ATOM     21  C14 UNK     0      -5.279   1.356  -0.709  0.00  0.00    +0.000 A 
ATOM     22  C22 UNK     0      -6.607   1.071  -1.034  0.00  0.00    +0.000 A 
ATOM     23  C18 UNK     0      -7.309   0.081  -0.341  0.00  0.00    +0.000 A 
ATOM     24  C12 UNK     0      -6.677  -0.640   0.689  0.00  0.00    +0.000 A 
ATOM     25  C10 UNK     0      -5.336  -0.347   1.012  0.00  0.00    +0.000 A 
BRANCH  23  26
ATOM     26  O3  UNK     0      -8.640  -0.163  -0.682  0.00  0.00    +0.000 OA
ATOM     27  H40 UNK     0      -9.197  -0.866  -0.212  0.00  0.00    +0.000 HD
ENDBRANCH  23  26
BRANCH  24  28
ATOM     28  O1  UNK     0      -7.405  -1.630   1.370  0.00  0.00    +0.000 OA
ATOM     29  C26 UNK     0      -6.898  -2.409   2.450  0.00  0.00    +0.000 C 
ENDBRANCH  24  28
ENDBRANCH  19  20
ENDBRANCH  16  18
ENDBRANCH   1  16
TORSDOF 10
