REMARK  Name = C:\Users\Maximilian\Desktop\Conformers\converted_pdb\conformers_pdb\Circumin_conf_15.pdb
REMARK  12 active torsions:
REMARK  status: ('A' for Active; 'I' for Inactive)
REMARK    1  A    between atoms: C9_1  and  C21_2
REMARK    2  A    between atoms: C9_1  and  C20_16
REMARK    3  A    between atoms: C21_2  and  C25_4
REMARK    4  A    between atoms: C17_5  and  C8_6
REMARK    5  A    between atoms: C13_8  and  O2_12
REMARK    6  A    between atoms: C19_9  and  O4_14
REMARK    7  A    between atoms: O2_12  and  C27_13
REMARK    8  A    between atoms: C20_16  and  C24_18
REMARK    9  A    between atoms: C16_19  and  C7_20
REMARK   10  A    between atoms: C18_23  and  O3_26
REMARK   11  A    between atoms: C12_24  and  O1_28
REMARK   12  A    between atoms: O1_28  and  C26_29
REMARK                            x       y       z     vdW  Elec       q    Type
REMARK                         _______ _______ _______ _____ _____    ______ ____
ROOT
ATOM      1  C9  UNK     0      -0.006  -1.005  -3.753  0.00  0.00    +0.000 C 
ENDROOT
BRANCH   1   2
ATOM      2  C21 UNK     0       0.863  -1.791  -2.815  0.00  0.00    +0.000 C 
ATOM      3  O6  UNK     0       0.791  -3.050  -2.818  0.00  0.00    +0.000 OA
BRANCH   2   4
ATOM      4  C25 UNK     0       1.773  -1.090  -1.883  0.00  0.00    +0.000 C 
ATOM      5  C17 UNK     0       2.500  -1.744  -0.965  0.00  0.00    +0.000 C 
BRANCH   5   6
ATOM      6  C8  UNK     0       3.440  -1.074  -0.036  0.00  0.00    +0.000 A 
ATOM      7  C11 UNK     0       4.050   0.158  -0.343  0.00  0.00    +0.000 A 
ATOM      8  C13 UNK     0       4.959   0.751   0.554  0.00  0.00    +0.000 A 
ATOM      9  C19 UNK     0       5.265   0.099   1.757  0.00  0.00    +0.000 A 
ATOM     10  C23 UNK     0       4.671  -1.130   2.060  0.00  0.00    +0.000 A 
ATOM     11  C15 UNK     0       3.771  -1.715   1.167  0.00  0.00    +0.000 A 
BRANCH   8  12
ATOM     12  O2  UNK     0       5.579   1.982   0.287  0.00  0.00    +0.000 OA
ATOM     13  C27 UNK     0       5.341   2.768  -0.877  0.00  0.00    +0.000 C 
ENDBRANCH   8  12
BRANCH   9  14
ATOM     14  O4  UNK     0       6.169   0.678   2.644  0.00  0.00    +0.000 OA
ATOM     15  H41 UNK     0       6.418   0.229   3.519  0.00  0.00    +0.000 HD
ENDBRANCH   9  14
ENDBRANCH   5   6
ENDBRANCH   2   4
ENDBRANCH   1   2
BRANCH   1  16
ATOM     16  C20 UNK     0      -1.421  -0.988  -3.261  0.00  0.00    +0.000 C 
ATOM     17  O5  UNK     0      -2.311  -1.591  -3.921  0.00  0.00    +0.000 OA
BRANCH  16  18
ATOM     18  C24 UNK     0      -1.763  -0.284  -2.008  0.00  0.00    +0.000 C 
ATOM     19  C16 UNK     0      -2.994  -0.326  -1.482  0.00  0.00    +0.000 C 
BRANCH  19  20
ATOM     20  C7  UNK     0      -3.369   0.317  -0.198  0.00  0.00    +0.000 A 
ATOM     21  C14 UNK     0      -2.643   1.391   0.351  0.00  0.00    +0.000 A 
ATOM     22  C22 UNK     0      -3.042   1.966   1.561  0.00  0.00    +0.000 A 
ATOM     23  C18 UNK     0      -4.171   1.485   2.237  0.00  0.00    +0.000 A 
ATOM     24  C12 UNK     0      -4.914   0.426   1.699  0.00  0.00    +0.000 A 
ATOM     25  C10 UNK     0      -4.511  -0.149   0.476  0.00  0.00    +0.000 A 
BRANCH  23  26
ATOM     26  O3  UNK     0      -4.562   2.058   3.446  0.00  0.00    +0.000 OA
ATOM     27  H40 UNK     0      -4.043   2.823   3.863  0.00  0.00    +0.000 HD
ENDBRANCH  23  26
BRANCH  24  28
ATOM     28  O1  UNK     0      -6.040  -0.028   2.407  0.00  0.00    +0.000 OA
ATOM     29  C26 UNK     0      -6.898  -1.080   1.971  0.00  0.00    +0.000 C 
ENDBRANCH  24  28
ENDBRANCH  19  20
ENDBRANCH  16  18
ENDBRANCH   1  16
TORSDOF 10
