REMARK  Name = C:\Users\Maximilian\Desktop\Conformers\converted_pdb\conformers_pdb\Circumin_conf_27.pdb
REMARK  12 active torsions:
REMARK  status: ('A' for Active; 'I' for Inactive)
REMARK    1  A    between atoms: C9_1  and  C21_2
REMARK    2  A    between atoms: C9_1  and  C20_16
REMARK    3  A    between atoms: C21_2  and  C25_4
REMARK    4  A    between atoms: C17_5  and  C8_6
REMARK    5  A    between atoms: C13_8  and  O2_12
REMARK    6  A    between atoms: C19_9  and  O4_14
REMARK    7  A    between atoms: O2_12  and  C27_13
REMARK    8  A    between atoms: C20_16  and  C24_18
REMARK    9  A    between atoms: C16_19  and  C7_20
REMARK   10  A    between atoms: C18_23  and  O3_26
REMARK   11  A    between atoms: C12_24  and  O1_28
REMARK   12  A    between atoms: O1_28  and  C26_29
REMARK                            x       y       z     vdW  Elec       q    Type
REMARK                         _______ _______ _______ _____ _____    ______ ____
ROOT
ATOM      1  C9  UNK     0      -0.498  -2.192   2.339  0.00  0.00    +0.000 C 
ENDROOT
BRANCH   1   2
ATOM      2  C21 UNK     0      -1.611  -1.916   1.374  0.00  0.00    +0.000 C 
ATOM      3  O6  UNK     0      -2.792  -1.817   1.807  0.00  0.00    +0.000 OA
BRANCH   2   4
ATOM      4  C25 UNK     0      -1.320  -1.818  -0.075  0.00  0.00    +0.000 C 
ATOM      5  C17 UNK     0      -2.100  -1.206  -0.981  0.00  0.00    +0.000 C 
BRANCH   5   6
ATOM      6  C8  UNK     0      -3.273  -0.364  -0.668  0.00  0.00    +0.000 A 
ATOM      7  C11 UNK     0      -4.444  -0.510  -1.425  0.00  0.00    +0.000 A 
ATOM      8  C13 UNK     0      -5.565   0.310  -1.176  0.00  0.00    +0.000 A 
ATOM      9  C19 UNK     0      -5.490   1.292  -0.178  0.00  0.00    +0.000 A 
ATOM     10  C23 UNK     0      -4.309   1.460   0.557  0.00  0.00    +0.000 A 
ATOM     11  C15 UNK     0      -3.203   0.645   0.306  0.00  0.00    +0.000 A 
BRANCH   8  12
ATOM     12  O2  UNK     0      -6.763   0.181  -1.895  0.00  0.00    +0.000 OA
ATOM     13  C27 UNK     0      -6.969  -0.750  -2.953  0.00  0.00    +0.000 C 
ENDBRANCH   8  12
BRANCH   9  14
ATOM     14  O4  UNK     0      -6.594   2.105   0.075  0.00  0.00    +0.000 OA
ATOM     15  H41 UNK     0      -6.576   2.818   0.795  0.00  0.00    +0.000 HD
ENDBRANCH   9  14
ENDBRANCH   5   6
ENDBRANCH   2   4
ENDBRANCH   1   2
BRANCH   1  16
ATOM     16  C20 UNK     0       0.429  -1.016   2.408  0.00  0.00    +0.000 C 
ATOM     17  O5  UNK     0       0.070   0.014   3.041  0.00  0.00    +0.000 OA
BRANCH  16  18
ATOM     18  C24 UNK     0       1.730  -1.057   1.711  0.00  0.00    +0.000 C 
ATOM     19  C16 UNK     0       2.532   0.013   1.631  0.00  0.00    +0.000 C 
BRANCH  19  20
ATOM     20  C7  UNK     0       3.834  -0.007   0.923  0.00  0.00    +0.000 A 
ATOM     21  C14 UNK     0       4.602  -1.181   0.814  0.00  0.00    +0.000 A 
ATOM     22  C22 UNK     0       5.825  -1.164   0.141  0.00  0.00    +0.000 A 
ATOM     23  C18 UNK     0       6.305   0.023  -0.426  0.00  0.00    +0.000 A 
ATOM     24  C12 UNK     0       5.562   1.206  -0.314  0.00  0.00    +0.000 A 
ATOM     25  C10 UNK     0       4.329   1.186   0.371  0.00  0.00    +0.000 A 
BRANCH  23  26
ATOM     26  O3  UNK     0       7.524   0.036  -1.104  0.00  0.00    +0.000 OA
ATOM     27  H40 UNK     0       8.085  -0.802  -1.202  0.00  0.00    +0.000 HD
ENDBRANCH  23  26
BRANCH  24  28
ATOM     28  O1  UNK     0       6.077   2.376  -0.893  0.00  0.00    +0.000 OA
ATOM     29  C26 UNK     0       5.426   3.643  -0.869  0.00  0.00    +0.000 C 
ENDBRANCH  24  28
ENDBRANCH  19  20
ENDBRANCH  16  18
ENDBRANCH   1  16
TORSDOF 10
