REMARK  Name = C:\Users\Maximilian\Desktop\Conformers\converted_pdb\conformers_pdb\Circumin_conf_56.pdb
REMARK  12 active torsions:
REMARK  status: ('A' for Active; 'I' for Inactive)
REMARK    1  A    between atoms: C9_1  and  C21_2
REMARK    2  A    between atoms: C9_1  and  C20_16
REMARK    3  A    between atoms: C21_2  and  C25_4
REMARK    4  A    between atoms: C17_5  and  C8_6
REMARK    5  A    between atoms: C13_8  and  O2_12
REMARK    6  A    between atoms: C19_9  and  O4_14
REMARK    7  A    between atoms: O2_12  and  C27_13
REMARK    8  A    between atoms: C20_16  and  C24_18
REMARK    9  A    between atoms: C16_19  and  C7_20
REMARK   10  A    between atoms: C18_23  and  O3_26
REMARK   11  A    between atoms: C12_24  and  O1_28
REMARK   12  A    between atoms: O1_28  and  C26_29
REMARK                            x       y       z     vdW  Elec       q    Type
REMARK                         _______ _______ _______ _____ _____    ______ ____
ROOT
ATOM      1  C9  UNK     0       0.272  -0.768   3.710  0.00  0.00    +0.000 C 
ENDROOT
BRANCH   1   2
ATOM      2  C21 UNK     0       1.400  -0.121   2.966  0.00  0.00    +0.000 C 
ATOM      3  O6  UNK     0       2.519  -0.698   2.916  0.00  0.00    +0.000 OA
BRANCH   2   4
ATOM      4  C25 UNK     0       1.190   1.181   2.299  0.00  0.00    +0.000 C 
ATOM      5  C17 UNK     0       1.851   1.606   1.210  0.00  0.00    +0.000 C 
BRANCH   5   6
ATOM      6  C8  UNK     0       2.771   0.783   0.397  0.00  0.00    +0.000 A 
ATOM      7  C11 UNK     0       3.973   1.345  -0.057  0.00  0.00    +0.000 A 
ATOM      8  C13 UNK     0       4.858   0.596  -0.859  0.00  0.00    +0.000 A 
ATOM      9  C19 UNK     0       4.512  -0.719  -1.221  0.00  0.00    +0.000 A 
ATOM     10  C23 UNK     0       3.297  -1.265  -0.799  0.00  0.00    +0.000 A 
ATOM     11  C15 UNK     0       2.424  -0.518  -0.006  0.00  0.00    +0.000 A 
BRANCH   8  12
ATOM     12  O2  UNK     0       6.078   1.124  -1.311  0.00  0.00    +0.000 OA
ATOM     13  C27 UNK     0       6.533   2.447  -1.044  0.00  0.00    +0.000 C 
ENDBRANCH   8  12
BRANCH   9  14
ATOM     14  O4  UNK     0       5.364  -1.500  -2.001  0.00  0.00    +0.000 OA
ATOM     15  H41 UNK     0       6.259  -1.159  -2.330  0.00  0.00    +0.000 HD
ENDBRANCH   9  14
ENDBRANCH   5   6
ENDBRANCH   2   4
ENDBRANCH   1   2
BRANCH   1  16
ATOM     16  C20 UNK     0      -0.634  -1.472   2.746  0.00  0.00    +0.000 C 
ATOM     17  O5  UNK     0      -0.470  -2.703   2.530  0.00  0.00    +0.000 OA
BRANCH  16  18
ATOM     18  C24 UNK     0      -1.670  -0.711   2.019  0.00  0.00    +0.000 C 
ATOM     19  C16 UNK     0      -2.423  -1.266   1.059  0.00  0.00    +0.000 C 
BRANCH  19  20
ATOM     20  C7  UNK     0      -3.441  -0.512   0.286  0.00  0.00    +0.000 A 
ATOM     21  C14 UNK     0      -4.078   0.633   0.800  0.00  0.00    +0.000 A 
ATOM     22  C22 UNK     0      -5.032   1.311   0.039  0.00  0.00    +0.000 A 
ATOM     23  C18 UNK     0      -5.371   0.855  -1.241  0.00  0.00    +0.000 A 
ATOM     24  C12 UNK     0      -4.761  -0.292  -1.763  0.00  0.00    +0.000 A 
ATOM     25  C10 UNK     0      -3.802  -0.976  -0.990  0.00  0.00    +0.000 A 
BRANCH  23  26
ATOM     26  O3  UNK     0      -6.319   1.538  -2.001  0.00  0.00    +0.000 OA
ATOM     27  H40 UNK     0      -6.778   2.371  -1.652  0.00  0.00    +0.000 HD
ENDBRANCH  23  26
BRANCH  24  28
ATOM     28  O1  UNK     0      -5.131  -0.719  -3.048  0.00  0.00    +0.000 OA
ATOM     29  C26 UNK     0      -4.581  -1.853  -3.711  0.00  0.00    +0.000 C 
ENDBRANCH  24  28
ENDBRANCH  19  20
ENDBRANCH  16  18
ENDBRANCH   1  16
TORSDOF 10
