REMARK  Name = C:\Users\Maximilian\Desktop\Conformers\converted_pdb\conformers_pdb\Circumin_conf_49.pdb
REMARK  12 active torsions:
REMARK  status: ('A' for Active; 'I' for Inactive)
REMARK    1  A    between atoms: C9_1  and  C21_2
REMARK    2  A    between atoms: C9_1  and  C20_16
REMARK    3  A    between atoms: C21_2  and  C25_4
REMARK    4  A    between atoms: C17_5  and  C8_6
REMARK    5  A    between atoms: C13_8  and  O2_12
REMARK    6  A    between atoms: C19_9  and  O4_14
REMARK    7  A    between atoms: O2_12  and  C27_13
REMARK    8  A    between atoms: C20_16  and  C24_18
REMARK    9  A    between atoms: C16_19  and  C7_20
REMARK   10  A    between atoms: C18_23  and  O3_26
REMARK   11  A    between atoms: C12_24  and  O1_28
REMARK   12  A    between atoms: O1_28  and  C26_29
REMARK                            x       y       z     vdW  Elec       q    Type
REMARK                         _______ _______ _______ _____ _____    ______ ____
ROOT
ATOM      1  C9  UNK     0      -0.999   0.487   0.343  0.00  0.00    +0.000 C 
ENDROOT
BRANCH   1   2
ATOM      2  C21 UNK     0      -0.364  -0.750   0.924  0.00  0.00    +0.000 C 
ATOM      3  O6  UNK     0      -1.102  -1.590   1.504  0.00  0.00    +0.000 OA
BRANCH   2   4
ATOM      4  C25 UNK     0       1.085  -1.035   0.834  0.00  0.00    +0.000 C 
ATOM      5  C17 UNK     0       1.972  -0.200   0.272  0.00  0.00    +0.000 C 
BRANCH   5   6
ATOM      6  C8  UNK     0       3.426  -0.483   0.182  0.00  0.00    +0.000 A 
ATOM      7  C11 UNK     0       4.312   0.593   0.005  0.00  0.00    +0.000 A 
ATOM      8  C13 UNK     0       5.701   0.378  -0.097  0.00  0.00    +0.000 A 
ATOM      9  C19 UNK     0       6.199  -0.934  -0.030  0.00  0.00    +0.000 A 
ATOM     10  C23 UNK     0       5.320  -2.009   0.128  0.00  0.00    +0.000 A 
ATOM     11  C15 UNK     0       3.945  -1.791   0.228  0.00  0.00    +0.000 A 
BRANCH   8  12
ATOM     12  O2  UNK     0       6.607   1.438  -0.264  0.00  0.00    +0.000 OA
ATOM     13  C27 UNK     0       6.238   2.811  -0.354  0.00  0.00    +0.000 C 
ENDBRANCH   8  12
BRANCH   9  14
ATOM     14  O4  UNK     0       7.567  -1.192  -0.123  0.00  0.00    +0.000 OA
ATOM     15  H41 UNK     0       8.249  -0.453  -0.240  0.00  0.00    +0.000 HD
ENDBRANCH   9  14
ENDBRANCH   5   6
ENDBRANCH   2   4
ENDBRANCH   1   2
BRANCH   1  16
ATOM     16  C20 UNK     0      -0.974   0.474  -1.166  0.00  0.00    +0.000 C 
ATOM     17  O5  UNK     0      -0.560   1.497  -1.773  0.00  0.00    +0.000 OA
BRANCH  16  18
ATOM     18  C24 UNK     0      -1.328  -0.719  -1.964  0.00  0.00    +0.000 C 
ATOM     19  C16 UNK     0      -2.389  -1.512  -1.753  0.00  0.00    +0.000 C 
BRANCH  19  20
ATOM     20  C7  UNK     0      -3.505  -1.212  -0.833  0.00  0.00    +0.000 A 
ATOM     21  C14 UNK     0      -4.008  -2.229  -0.014  0.00  0.00    +0.000 A 
ATOM     22  C22 UNK     0      -5.086  -1.978   0.837  0.00  0.00    +0.000 A 
ATOM     23  C18 UNK     0      -5.687  -0.716   0.866  0.00  0.00    +0.000 A 
ATOM     24  C12 UNK     0      -5.213   0.310   0.028  0.00  0.00    +0.000 A 
ATOM     25  C10 UNK     0      -4.129   0.047  -0.833  0.00  0.00    +0.000 A 
BRANCH  23  26
ATOM     26  O3  UNK     0      -6.758  -0.501   1.734  0.00  0.00    +0.000 OA
ATOM     27  H40 UNK     0      -7.232   0.392   1.795  0.00  0.00    +0.000 HD
ENDBRANCH  23  26
BRANCH  24  28
ATOM     28  O1  UNK     0      -5.838   1.566   0.075  0.00  0.00    +0.000 OA
ATOM     29  C26 UNK     0      -5.443   2.693  -0.701  0.00  0.00    +0.000 C 
ENDBRANCH  24  28
ENDBRANCH  19  20
ENDBRANCH  16  18
ENDBRANCH   1  16
TORSDOF 10
