REMARK  Name = C:\Users\Maximilian\Desktop\Conformers\converted_pdb\conformers_pdb\Circumin_conf_52.pdb
REMARK  12 active torsions:
REMARK  status: ('A' for Active; 'I' for Inactive)
REMARK    1  A    between atoms: C9_1  and  C21_2
REMARK    2  A    between atoms: C9_1  and  C20_16
REMARK    3  A    between atoms: C21_2  and  C25_4
REMARK    4  A    between atoms: C17_5  and  C8_6
REMARK    5  A    between atoms: C13_8  and  O2_12
REMARK    6  A    between atoms: C19_9  and  O4_14
REMARK    7  A    between atoms: O2_12  and  C27_13
REMARK    8  A    between atoms: C20_16  and  C24_18
REMARK    9  A    between atoms: C16_19  and  C7_20
REMARK   10  A    between atoms: C18_23  and  O3_26
REMARK   11  A    between atoms: C12_24  and  O1_28
REMARK   12  A    between atoms: O1_28  and  C26_29
REMARK                            x       y       z     vdW  Elec       q    Type
REMARK                         _______ _______ _______ _____ _____    ______ ____
ROOT
ATOM      1  C9  UNK     0       0.166  -2.744   1.208  0.00  0.00    +0.000 C 
ENDROOT
BRANCH   1   2
ATOM      2  C21 UNK     0       0.519  -1.666   2.207  0.00  0.00    +0.000 C 
ATOM      3  O6  UNK     0      -0.139  -1.566   3.279  0.00  0.00    +0.000 OA
BRANCH   2   4
ATOM      4  C25 UNK     0       1.645  -0.732   1.994  0.00  0.00    +0.000 C 
ATOM      5  C17 UNK     0       2.507  -0.834   0.971  0.00  0.00    +0.000 C 
BRANCH   5   6
ATOM      6  C8  UNK     0       3.631   0.109   0.747  0.00  0.00    +0.000 A 
ATOM      7  C11 UNK     0       4.168   0.220  -0.546  0.00  0.00    +0.000 A 
ATOM      8  C13 UNK     0       5.242   1.094  -0.810  0.00  0.00    +0.000 A 
ATOM      9  C19 UNK     0       5.784   1.851   0.237  0.00  0.00    +0.000 A 
ATOM     10  C23 UNK     0       5.264   1.733   1.531  0.00  0.00    +0.000 A 
ATOM     11  C15 UNK     0       4.200   0.867   1.788  0.00  0.00    +0.000 A 
BRANCH   8  12
ATOM     12  O2  UNK     0       5.794   1.236  -2.093  0.00  0.00    +0.000 OA
ATOM     13  C27 UNK     0       5.345   0.532  -3.247  0.00  0.00    +0.000 C 
ENDBRANCH   8  12
BRANCH   9  14
ATOM     14  O4  UNK     0       6.845   2.719  -0.018  0.00  0.00    +0.000 OA
ATOM     15  H41 UNK     0       7.260   3.279   0.718  0.00  0.00    +0.000 HD
ENDBRANCH   9  14
ENDBRANCH   5   6
ENDBRANCH   2   4
ENDBRANCH   1   2
BRANCH   1  16
ATOM     16  C20 UNK     0      -1.185  -3.359   1.475  0.00  0.00    +0.000 C 
ATOM     17  O5  UNK     0      -1.233  -4.511   1.983  0.00  0.00    +0.000 OA
BRANCH  16  18
ATOM     18  C24 UNK     0      -2.460  -2.663   1.188  0.00  0.00    +0.000 C 
ATOM     19  C16 UNK     0      -2.528  -1.415   0.700  0.00  0.00    +0.000 C 
BRANCH  19  20
ATOM     20  C7  UNK     0      -3.804  -0.716   0.405  0.00  0.00    +0.000 A 
ATOM     21  C14 UNK     0      -5.016  -1.062   1.031  0.00  0.00    +0.000 A 
ATOM     22  C22 UNK     0      -6.189  -0.367   0.731  0.00  0.00    +0.000 A 
ATOM     23  C18 UNK     0      -6.171   0.689  -0.188  0.00  0.00    +0.000 A 
ATOM     24  C12 UNK     0      -4.971   1.059  -0.809  0.00  0.00    +0.000 A 
ATOM     25  C10 UNK     0      -3.789   0.355  -0.503  0.00  0.00    +0.000 A 
BRANCH  23  26
ATOM     26  O3  UNK     0      -7.344   1.381  -0.486  0.00  0.00    +0.000 OA
ATOM     27  H40 UNK     0      -8.228   1.139  -0.053  0.00  0.00    +0.000 HD
ENDBRANCH  23  26
BRANCH  24  28
ATOM     28  O1  UNK     0      -4.992   2.127  -1.720  0.00  0.00    +0.000 OA
ATOM     29  C26 UNK     0      -3.852   2.611  -2.422  0.00  0.00    +0.000 C 
ENDBRANCH  24  28
ENDBRANCH  19  20
ENDBRANCH  16  18
ENDBRANCH   1  16
TORSDOF 10
