REMARK  Name = C:\Users\Maximilian\Desktop\Conformers\converted_pdb\conformers_pdb\Circumin_conf_72.pdb
REMARK  12 active torsions:
REMARK  status: ('A' for Active; 'I' for Inactive)
REMARK    1  A    between atoms: C9_1  and  C21_2
REMARK    2  A    between atoms: C9_1  and  C20_16
REMARK    3  A    between atoms: C21_2  and  C25_4
REMARK    4  A    between atoms: C17_5  and  C8_6
REMARK    5  A    between atoms: C13_8  and  O2_12
REMARK    6  A    between atoms: C19_9  and  O4_14
REMARK    7  A    between atoms: O2_12  and  C27_13
REMARK    8  A    between atoms: C20_16  and  C24_18
REMARK    9  A    between atoms: C16_19  and  C7_20
REMARK   10  A    between atoms: C18_23  and  O3_26
REMARK   11  A    between atoms: C12_24  and  O1_28
REMARK   12  A    between atoms: O1_28  and  C26_29
REMARK                            x       y       z     vdW  Elec       q    Type
REMARK                         _______ _______ _______ _____ _____    ______ ____
ROOT
ATOM      1  C9  UNK     0      -1.207  -0.133  -2.501  0.00  0.00    +0.000 C 
ENDROOT
BRANCH   1   2
ATOM      2  C21 UNK     0      -2.190  -0.968  -1.740  0.00  0.00    +0.000 C 
ATOM      3  O6  UNK     0      -3.187  -0.413  -1.204  0.00  0.00    +0.000 OA
BRANCH   2   4
ATOM      4  C25 UNK     0      -1.981  -2.425  -1.615  0.00  0.00    +0.000 C 
ATOM      5  C17 UNK     0      -2.399  -3.173  -0.583  0.00  0.00    +0.000 C 
BRANCH   5   6
ATOM      6  C8  UNK     0      -2.952  -2.643   0.683  0.00  0.00    +0.000 A 
ATOM      7  C11 UNK     0      -2.328  -1.585   1.366  0.00  0.00    +0.000 A 
ATOM      8  C13 UNK     0      -2.838  -1.124   2.597  0.00  0.00    +0.000 A 
ATOM      9  C19 UNK     0      -3.969  -1.753   3.148  0.00  0.00    +0.000 A 
ATOM     10  C23 UNK     0      -4.573  -2.822   2.478  0.00  0.00    +0.000 A 
ATOM     11  C15 UNK     0      -4.063  -3.272   1.259  0.00  0.00    +0.000 A 
BRANCH   8  12
ATOM     12  O2  UNK     0      -2.248  -0.057   3.293  0.00  0.00    +0.000 OA
ATOM     13  C27 UNK     0      -1.129   0.691   2.829  0.00  0.00    +0.000 C 
ENDBRANCH   8  12
BRANCH   9  14
ATOM     14  O4  UNK     0      -4.504  -1.333   4.366  0.00  0.00    +0.000 OA
ATOM     15  H41 UNK     0      -4.095  -0.579   4.903  0.00  0.00    +0.000 HD
ENDBRANCH   9  14
ENDBRANCH   5   6
ENDBRANCH   2   4
ENDBRANCH   1   2
BRANCH   1  16
ATOM     16  C20 UNK     0      -0.151   0.373  -1.568  0.00  0.00    +0.000 C 
ATOM     17  O5  UNK     0       0.848  -0.357  -1.323  0.00  0.00    +0.000 OA
BRANCH  16  18
ATOM     18  C24 UNK     0      -0.356   1.652  -0.852  0.00  0.00    +0.000 C 
ATOM     19  C16 UNK     0       0.579   2.321  -0.158  0.00  0.00    +0.000 C 
BRANCH  19  20
ATOM     20  C7  UNK     0       2.021   2.003  -0.140  0.00  0.00    +0.000 A 
ATOM     21  C14 UNK     0       2.704   1.990   1.083  0.00  0.00    +0.000 A 
ATOM     22  C22 UNK     0       4.078   1.744   1.120  0.00  0.00    +0.000 A 
ATOM     23  C18 UNK     0       4.789   1.526  -0.067  0.00  0.00    +0.000 A 
ATOM     24  C12 UNK     0       4.124   1.559  -1.301  0.00  0.00    +0.000 A 
ATOM     25  C10 UNK     0       2.739   1.815  -1.333  0.00  0.00    +0.000 A 
BRANCH  23  26
ATOM     26  O3  UNK     0       6.160   1.278  -0.030  0.00  0.00    +0.000 OA
ATOM     27  H40 UNK     0       6.672   1.251   0.845  0.00  0.00    +0.000 HD
ENDBRANCH  23  26
BRANCH  24  28
ATOM     28  O1  UNK     0       4.870   1.334  -2.469  0.00  0.00    +0.000 OA
ATOM     29  C26 UNK     0       4.322   1.304  -3.783  0.00  0.00    +0.000 C 
ENDBRANCH  24  28
ENDBRANCH  19  20
ENDBRANCH  16  18
ENDBRANCH   1  16
TORSDOF 10
