REMARK  Name = C:\Users\Maximilian\Desktop\Conformers\converted_pdb\conformers_pdb\Circumin_conf_18.pdb
REMARK  12 active torsions:
REMARK  status: ('A' for Active; 'I' for Inactive)
REMARK    1  A    between atoms: C9_1  and  C21_2
REMARK    2  A    between atoms: C9_1  and  C20_16
REMARK    3  A    between atoms: C21_2  and  C25_4
REMARK    4  A    between atoms: C17_5  and  C8_6
REMARK    5  A    between atoms: C13_8  and  O2_12
REMARK    6  A    between atoms: C19_9  and  O4_14
REMARK    7  A    between atoms: O2_12  and  C27_13
REMARK    8  A    between atoms: C20_16  and  C24_18
REMARK    9  A    between atoms: C16_19  and  C7_20
REMARK   10  A    between atoms: C18_23  and  O3_26
REMARK   11  A    between atoms: C12_24  and  O1_28
REMARK   12  A    between atoms: O1_28  and  C26_29
REMARK                            x       y       z     vdW  Elec       q    Type
REMARK                         _______ _______ _______ _____ _____    ______ ____
ROOT
ATOM      1  C9  UNK     0      -0.359  -0.520  -2.519  0.00  0.00    +0.000 C 
ENDROOT
BRANCH   1   2
ATOM      2  C21 UNK     0       0.857   0.217  -2.042  0.00  0.00    +0.000 C 
ATOM      3  O6  UNK     0       0.983   1.440  -2.323  0.00  0.00    +0.000 OA
BRANCH   2   4
ATOM      4  C25 UNK     0       1.881  -0.479  -1.231  0.00  0.00    +0.000 C 
ATOM      5  C17 UNK     0       2.924   0.168  -0.692  0.00  0.00    +0.000 C 
BRANCH   5   6
ATOM      6  C8  UNK     0       3.992  -0.490   0.104  0.00  0.00    +0.000 A 
ATOM      7  C11 UNK     0       5.194   0.208   0.316  0.00  0.00    +0.000 A 
ATOM      8  C13 UNK     0       6.245  -0.370   1.054  0.00  0.00    +0.000 A 
ATOM      9  C19 UNK     0       6.081  -1.653   1.595  0.00  0.00    +0.000 A 
ATOM     10  C23 UNK     0       4.879  -2.346   1.409  0.00  0.00    +0.000 A 
ATOM     11  C15 UNK     0       3.841  -1.771   0.674  0.00  0.00    +0.000 A 
BRANCH   8  12
ATOM     12  O2  UNK     0       7.462   0.296   1.275  0.00  0.00    +0.000 OA
ATOM     13  C27 UNK     0       7.754   1.617   0.828  0.00  0.00    +0.000 C 
ENDBRANCH   8  12
BRANCH   9  14
ATOM     14  O4  UNK     0       7.121  -2.232   2.320  0.00  0.00    +0.000 OA
ATOM     15  H41 UNK     0       7.024  -3.144   2.753  0.00  0.00    +0.000 HD
ENDBRANCH   9  14
ENDBRANCH   5   6
ENDBRANCH   2   4
ENDBRANCH   1   2
BRANCH   1  16
ATOM     16  C20 UNK     0      -1.560  -0.099  -1.726  0.00  0.00    +0.000 C 
ATOM     17  O5  UNK     0      -1.764  -0.626  -0.598  0.00  0.00    +0.000 OA
BRANCH  16  18
ATOM     18  C24 UNK     0      -2.427   0.994  -2.229  0.00  0.00    +0.000 C 
ATOM     19  C16 UNK     0      -3.650   1.298  -1.767  0.00  0.00    +0.000 C 
BRANCH  19  20
ATOM     20  C7  UNK     0      -4.413   0.505  -0.782  0.00  0.00    +0.000 A 
ATOM     21  C14 UNK     0      -4.634  -0.868  -0.970  0.00  0.00    +0.000 A 
ATOM     22  C22 UNK     0      -5.399  -1.589  -0.050  0.00  0.00    +0.000 A 
ATOM     23  C18 UNK     0      -5.967  -0.943   1.055  0.00  0.00    +0.000 A 
ATOM     24  C12 UNK     0      -5.777   0.435   1.241  0.00  0.00    +0.000 A 
ATOM     25  C10 UNK     0      -5.005   1.157   0.309  0.00  0.00    +0.000 A 
BRANCH  23  26
ATOM     26  O3  UNK     0      -6.727  -1.663   1.975  0.00  0.00    +0.000 OA
ATOM     27  H40 UNK     0      -6.902  -2.653   1.860  0.00  0.00    +0.000 HD
ENDBRANCH  23  26
BRANCH  24  28
ATOM     28  O1  UNK     0      -6.370   1.048   2.356  0.00  0.00    +0.000 OA
ATOM     29  C26 UNK     0      -6.287   2.438   2.651  0.00  0.00    +0.000 C 
ENDBRANCH  24  28
ENDBRANCH  19  20
ENDBRANCH  16  18
ENDBRANCH   1  16
TORSDOF 10
