REMARK  Name = C:\Users\Maximilian\Desktop\Conformers\converted_pdb\conformers_pdb\Circumin_conf_61.pdb
REMARK  12 active torsions:
REMARK  status: ('A' for Active; 'I' for Inactive)
REMARK    1  A    between atoms: C9_1  and  C21_2
REMARK    2  A    between atoms: C9_1  and  C20_16
REMARK    3  A    between atoms: C21_2  and  C25_4
REMARK    4  A    between atoms: C17_5  and  C8_6
REMARK    5  A    between atoms: C13_8  and  O2_12
REMARK    6  A    between atoms: C19_9  and  O4_14
REMARK    7  A    between atoms: O2_12  and  C27_13
REMARK    8  A    between atoms: C20_16  and  C24_18
REMARK    9  A    between atoms: C16_19  and  C7_20
REMARK   10  A    between atoms: C18_23  and  O3_26
REMARK   11  A    between atoms: C12_24  and  O1_28
REMARK   12  A    between atoms: O1_28  and  C26_29
REMARK                            x       y       z     vdW  Elec       q    Type
REMARK                         _______ _______ _______ _____ _____    ______ ____
ROOT
ATOM      1  C9  UNK     0      -0.203  -2.432   2.454  0.00  0.00    +0.000 C 
ENDROOT
BRANCH   1   2
ATOM      2  C21 UNK     0       0.866  -1.666   1.734  0.00  0.00    +0.000 C 
ATOM      3  O6  UNK     0       1.182  -0.520   2.151  0.00  0.00    +0.000 OA
BRANCH   2   4
ATOM      4  C25 UNK     0       1.554  -2.280   0.573  0.00  0.00    +0.000 C 
ATOM      5  C17 UNK     0       2.396  -1.656  -0.266  0.00  0.00    +0.000 C 
BRANCH   5   6
ATOM      6  C8  UNK     0       2.677  -0.207  -0.280  0.00  0.00    +0.000 A 
ATOM      7  C11 UNK     0       4.009   0.232  -0.291  0.00  0.00    +0.000 A 
ATOM      8  C13 UNK     0       4.311   1.607  -0.361  0.00  0.00    +0.000 A 
ATOM      9  C19 UNK     0       3.257   2.538  -0.439  0.00  0.00    +0.000 A 
ATOM     10  C23 UNK     0       1.931   2.095  -0.458  0.00  0.00    +0.000 A 
ATOM     11  C15 UNK     0       1.640   0.732  -0.392  0.00  0.00    +0.000 A 
BRANCH   8  12
ATOM     12  O2  UNK     0       5.633   2.077  -0.360  0.00  0.00    +0.000 OA
ATOM     13  C27 UNK     0       6.787   1.245  -0.302  0.00  0.00    +0.000 C 
ENDBRANCH   8  12
BRANCH   9  14
ATOM     14  O4  UNK     0       3.510   3.908  -0.507  0.00  0.00    +0.000 OA
ATOM     15  H41 UNK     0       4.451   4.283  -0.496  0.00  0.00    +0.000 HD
ENDBRANCH   9  14
ENDBRANCH   5   6
ENDBRANCH   2   4
ENDBRANCH   1   2
BRANCH   1  16
ATOM     16  C20 UNK     0      -1.528  -2.228   1.786  0.00  0.00    +0.000 C 
ATOM     17  O5  UNK     0      -2.360  -1.436   2.303  0.00  0.00    +0.000 OA
BRANCH  16  18
ATOM     18  C24 UNK     0      -1.858  -2.988   0.558  0.00  0.00    +0.000 C 
ATOM     19  C16 UNK     0      -2.837  -2.681  -0.308  0.00  0.00    +0.000 C 
BRANCH  19  20
ATOM     20  C7  UNK     0      -3.635  -1.439  -0.284  0.00  0.00    +0.000 A 
ATOM     21  C14 UNK     0      -5.026  -1.514  -0.419  0.00  0.00    +0.000 A 
ATOM     22  C22 UNK     0      -5.798  -0.350  -0.422  0.00  0.00    +0.000 A 
ATOM     23  C18 UNK     0      -5.183   0.905  -0.314  0.00  0.00    +0.000 A 
ATOM     24  C12 UNK     0      -3.788   0.999  -0.221  0.00  0.00    +0.000 A 
ATOM     25  C10 UNK     0      -3.016  -0.179  -0.219  0.00  0.00    +0.000 A 
BRANCH  23  26
ATOM     26  O3  UNK     0      -5.954   2.066  -0.308  0.00  0.00    +0.000 OA
ATOM     27  H40 UNK     0      -6.964   2.034  -0.378  0.00  0.00    +0.000 HD
ENDBRANCH  23  26
BRANCH  24  28
ATOM     28  O1  UNK     0      -3.207   2.274  -0.140  0.00  0.00    +0.000 OA
ATOM     29  C26 UNK     0      -1.804   2.518  -0.104  0.00  0.00    +0.000 C 
ENDBRANCH  24  28
ENDBRANCH  19  20
ENDBRANCH  16  18
ENDBRANCH   1  16
TORSDOF 10
