REMARK  Name = C:\Users\Maximilian\Desktop\Conformers\converted_pdb\conformers_pdb\Circumin_conf_60.pdb
REMARK  12 active torsions:
REMARK  status: ('A' for Active; 'I' for Inactive)
REMARK    1  A    between atoms: C9_1  and  C21_2
REMARK    2  A    between atoms: C9_1  and  C20_16
REMARK    3  A    between atoms: C21_2  and  C25_4
REMARK    4  A    between atoms: C17_5  and  C8_6
REMARK    5  A    between atoms: C13_8  and  O2_12
REMARK    6  A    between atoms: C19_9  and  O4_14
REMARK    7  A    between atoms: O2_12  and  C27_13
REMARK    8  A    between atoms: C20_16  and  C24_18
REMARK    9  A    between atoms: C16_19  and  C7_20
REMARK   10  A    between atoms: C18_23  and  O3_26
REMARK   11  A    between atoms: C12_24  and  O1_28
REMARK   12  A    between atoms: O1_28  and  C26_29
REMARK                            x       y       z     vdW  Elec       q    Type
REMARK                         _______ _______ _______ _____ _____    ______ ____
ROOT
ATOM      1  C9  UNK     0       0.096   1.079   2.788  0.00  0.00    +0.000 C 
ENDROOT
BRANCH   1   2
ATOM      2  C21 UNK     0      -1.039   1.586   1.950  0.00  0.00    +0.000 C 
ATOM      3  O6  UNK     0      -1.101   2.816   1.677  0.00  0.00    +0.000 OA
BRANCH   2   4
ATOM      4  C25 UNK     0      -2.045   0.645   1.417  0.00  0.00    +0.000 C 
ATOM      5  C17 UNK     0      -3.041   1.045   0.613  0.00  0.00    +0.000 C 
BRANCH   5   6
ATOM      6  C8  UNK     0      -4.059   0.127   0.045  0.00  0.00    +0.000 A 
ATOM      7  C11 UNK     0      -4.758   0.527  -1.107  0.00  0.00    +0.000 A 
ATOM      8  C13 UNK     0      -5.740  -0.305  -1.681  0.00  0.00    +0.000 A 
ATOM      9  C19 UNK     0      -6.028  -1.540  -1.086  0.00  0.00    +0.000 A 
ATOM     10  C23 UNK     0      -5.347  -1.937   0.071  0.00  0.00    +0.000 A 
ATOM     11  C15 UNK     0      -4.374  -1.111   0.637  0.00  0.00    +0.000 A 
BRANCH   8  12
ATOM     12  O2  UNK     0      -6.448   0.061  -2.837  0.00  0.00    +0.000 OA
ATOM     13  C27 UNK     0      -6.259   1.281  -3.547  0.00  0.00    +0.000 C 
ENDBRANCH   8  12
BRANCH   9  14
ATOM     14  O4  UNK     0      -6.997  -2.368  -1.649  0.00  0.00    +0.000 OA
ATOM     15  H41 UNK     0      -7.229  -3.266  -1.243  0.00  0.00    +0.000 HD
ENDBRANCH   9  14
ENDBRANCH   5   6
ENDBRANCH   2   4
ENDBRANCH   1   2
BRANCH   1  16
ATOM     16  C20 UNK     0       1.254   0.701   1.915  0.00  0.00    +0.000 C 
ATOM     17  O5  UNK     0       2.070   1.595   1.562  0.00  0.00    +0.000 OA
BRANCH  16  18
ATOM     18  C24 UNK     0       1.363  -0.679   1.393  0.00  0.00    +0.000 C 
ATOM     19  C16 UNK     0       2.466  -1.224   0.854  0.00  0.00    +0.000 C 
BRANCH  19  20
ATOM     20  C7  UNK     0       3.810  -0.609   0.853  0.00  0.00    +0.000 A 
ATOM     21  C14 UNK     0       4.378  -0.102   2.032  0.00  0.00    +0.000 A 
ATOM     22  C22 UNK     0       5.668   0.431   2.019  0.00  0.00    +0.000 A 
ATOM     23  C18 UNK     0       6.414   0.444   0.834  0.00  0.00    +0.000 A 
ATOM     24  C12 UNK     0       5.872  -0.087  -0.346  0.00  0.00    +0.000 A 
ATOM     25  C10 UNK     0       4.570  -0.624  -0.326  0.00  0.00    +0.000 A 
BRANCH  23  26
ATOM     26  O3  UNK     0       7.702   0.979   0.821  0.00  0.00    +0.000 OA
ATOM     27  H40 UNK     0       8.123   1.368   1.657  0.00  0.00    +0.000 HD
ENDBRANCH  23  26
BRANCH  24  28
ATOM     28  O1  UNK     0       6.656  -0.065  -1.511  0.00  0.00    +0.000 OA
ATOM     29  C26 UNK     0       6.235  -0.568  -2.774  0.00  0.00    +0.000 C 
ENDBRANCH  24  28
ENDBRANCH  19  20
ENDBRANCH  16  18
ENDBRANCH   1  16
TORSDOF 10
