REMARK  Name = C:\Users\Maximilian\Desktop\Conformers\converted_pdb\conformers_pdb\Circumin_conf_54.pdb
REMARK  12 active torsions:
REMARK  status: ('A' for Active; 'I' for Inactive)
REMARK    1  A    between atoms: C9_1  and  C21_2
REMARK    2  A    between atoms: C9_1  and  C20_16
REMARK    3  A    between atoms: C21_2  and  C25_4
REMARK    4  A    between atoms: C17_5  and  C8_6
REMARK    5  A    between atoms: C13_8  and  O2_12
REMARK    6  A    between atoms: C19_9  and  O4_14
REMARK    7  A    between atoms: O2_12  and  C27_13
REMARK    8  A    between atoms: C20_16  and  C24_18
REMARK    9  A    between atoms: C16_19  and  C7_20
REMARK   10  A    between atoms: C18_23  and  O3_26
REMARK   11  A    between atoms: C12_24  and  O1_28
REMARK   12  A    between atoms: O1_28  and  C26_29
REMARK                            x       y       z     vdW  Elec       q    Type
REMARK                         _______ _______ _______ _____ _____    ______ ____
ROOT
ATOM      1  C9  UNK     0      -0.198  -1.050  -1.002  0.00  0.00    +0.000 C 
ENDROOT
BRANCH   1   2
ATOM      2  C21 UNK     0      -1.405  -1.614  -1.716  0.00  0.00    +0.000 C 
ATOM      3  O6  UNK     0      -1.260  -2.147  -2.850  0.00  0.00    +0.000 OA
BRANCH   2   4
ATOM      4  C25 UNK     0      -2.773  -1.514  -1.166  0.00  0.00    +0.000 C 
ATOM      5  C17 UNK     0      -3.116  -0.647  -0.201  0.00  0.00    +0.000 C 
BRANCH   5   6
ATOM      6  C8  UNK     0      -4.493  -0.528   0.341  0.00  0.00    +0.000 A 
ATOM      7  C11 UNK     0      -4.871   0.672   0.965  0.00  0.00    +0.000 A 
ATOM      8  C13 UNK     0      -6.162   0.831   1.506  0.00  0.00    +0.000 A 
ATOM      9  C19 UNK     0      -7.076  -0.235   1.426  0.00  0.00    +0.000 A 
ATOM     10  C23 UNK     0      -6.697  -1.436   0.821  0.00  0.00    +0.000 A 
ATOM     11  C15 UNK     0      -5.417  -1.588   0.286  0.00  0.00    +0.000 A 
BRANCH   8  12
ATOM     12  O2  UNK     0      -6.568   2.024   2.125  0.00  0.00    +0.000 OA
ATOM     13  C27 UNK     0      -5.746   3.178   2.274  0.00  0.00    +0.000 C 
ENDBRANCH   8  12
BRANCH   9  14
ATOM     14  O4  UNK     0      -8.364  -0.121   1.947  0.00  0.00    +0.000 OA
ATOM     15  H41 UNK     0      -8.692   0.725   2.397  0.00  0.00    +0.000 HD
ENDBRANCH   9  14
ENDBRANCH   5   6
ENDBRANCH   2   4
ENDBRANCH   1   2
BRANCH   1  16
ATOM     16  C20 UNK     0       1.058  -1.861  -1.225  0.00  0.00    +0.000 C 
ATOM     17  O5  UNK     0       0.967  -3.099  -1.450  0.00  0.00    +0.000 OA
BRANCH  16  18
ATOM     18  C24 UNK     0       2.411  -1.274  -1.120  0.00  0.00    +0.000 C 
ATOM     19  C16 UNK     0       2.654  -0.067  -0.586  0.00  0.00    +0.000 C 
BRANCH  19  20
ATOM     20  C7  UNK     0       4.009   0.527  -0.482  0.00  0.00    +0.000 A 
ATOM     21  C14 UNK     0       4.123   1.921  -0.382  0.00  0.00    +0.000 A 
ATOM     22  C22 UNK     0       5.376   2.526  -0.274  0.00  0.00    +0.000 A 
ATOM     23  C18 UNK     0       6.537   1.750  -0.252  0.00  0.00    +0.000 A 
ATOM     24  C12 UNK     0       6.449   0.349  -0.332  0.00  0.00    +0.000 A 
ATOM     25  C10 UNK     0       5.180  -0.257  -0.442  0.00  0.00    +0.000 A 
BRANCH  23  26
ATOM     26  O3  UNK     0       7.772   2.390  -0.147  0.00  0.00    +0.000 OA
ATOM     27  H40 UNK     0       8.646   1.878  -0.126  0.00  0.00    +0.000 HD
ENDBRANCH  23  26
BRANCH  24  28
ATOM     28  O1  UNK     0       7.633  -0.406  -0.296  0.00  0.00    +0.000 OA
ATOM     29  C26 UNK     0       7.690  -1.827  -0.371  0.00  0.00    +0.000 C 
ENDBRANCH  24  28
ENDBRANCH  19  20
ENDBRANCH  16  18
ENDBRANCH   1  16
TORSDOF 10
