REMARK  Name = C:\Users\Maximilian\Desktop\Conformers\converted_pdb\conformers_pdb\Circumin_conf_14.pdb
REMARK  12 active torsions:
REMARK  status: ('A' for Active; 'I' for Inactive)
REMARK    1  A    between atoms: C9_1  and  C21_2
REMARK    2  A    between atoms: C9_1  and  C20_16
REMARK    3  A    between atoms: C21_2  and  C25_4
REMARK    4  A    between atoms: C17_5  and  C8_6
REMARK    5  A    between atoms: C13_8  and  O2_12
REMARK    6  A    between atoms: C19_9  and  O4_14
REMARK    7  A    between atoms: O2_12  and  C27_13
REMARK    8  A    between atoms: C20_16  and  C24_18
REMARK    9  A    between atoms: C16_19  and  C7_20
REMARK   10  A    between atoms: C18_23  and  O3_26
REMARK   11  A    between atoms: C12_24  and  O1_28
REMARK   12  A    between atoms: O1_28  and  C26_29
REMARK                            x       y       z     vdW  Elec       q    Type
REMARK                         _______ _______ _______ _____ _____    ______ ____
ROOT
ATOM      1  C9  UNK     0       0.049   1.446   0.835  0.00  0.00    +0.000 C 
ENDROOT
BRANCH   1   2
ATOM      2  C21 UNK     0       0.782   0.630  -0.195  0.00  0.00    +0.000 C 
ATOM      3  O6  UNK     0       0.278   0.455  -1.341  0.00  0.00    +0.000 OA
BRANCH   2   4
ATOM      4  C25 UNK     0       2.137   0.121   0.112  0.00  0.00    +0.000 C 
ATOM      5  C17 UNK     0       2.826  -0.639  -0.751  0.00  0.00    +0.000 C 
BRANCH   5   6
ATOM      6  C8  UNK     0       4.198  -1.138  -0.478  0.00  0.00    +0.000 A 
ATOM      7  C11 UNK     0       5.100  -0.438   0.348  0.00  0.00    +0.000 A 
ATOM      8  C13 UNK     0       6.404  -0.930   0.572  0.00  0.00    +0.000 A 
ATOM      9  C19 UNK     0       6.803  -2.127  -0.051  0.00  0.00    +0.000 A 
ATOM     10  C23 UNK     0       5.915  -2.810  -0.888  0.00  0.00    +0.000 A 
ATOM     11  C15 UNK     0       4.625  -2.318  -1.105  0.00  0.00    +0.000 A 
BRANCH   8  12
ATOM     12  O2  UNK     0       7.321  -0.258   1.396  0.00  0.00    +0.000 OA
ATOM     13  C27 UNK     0       7.048   0.959   2.082  0.00  0.00    +0.000 C 
ENDBRANCH   8  12
BRANCH   9  14
ATOM     14  O4  UNK     0       8.082  -2.653   0.147  0.00  0.00    +0.000 OA
ATOM     15  H41 UNK     0       8.766  -2.203   0.743  0.00  0.00    +0.000 HD
ENDBRANCH   9  14
ENDBRANCH   5   6
ENDBRANCH   2   4
ENDBRANCH   1   2
BRANCH   1  16
ATOM     16  C20 UNK     0      -1.441   1.382   0.644  0.00  0.00    +0.000 C 
ATOM     17  O5  UNK     0      -2.109   0.539   1.304  0.00  0.00    +0.000 OA
BRANCH  16  18
ATOM     18  C24 UNK     0      -2.103   2.314  -0.300  0.00  0.00    +0.000 C 
ATOM     19  C16 UNK     0      -3.331   2.157  -0.823  0.00  0.00    +0.000 C 
BRANCH  19  20
ATOM     20  C7  UNK     0      -4.176   0.950  -0.681  0.00  0.00    +0.000 A 
ATOM     21  C14 UNK     0      -3.669  -0.330  -0.960  0.00  0.00    +0.000 A 
ATOM     22  C22 UNK     0      -4.495  -1.451  -0.854  0.00  0.00    +0.000 A 
ATOM     23  C18 UNK     0      -5.841  -1.306  -0.491  0.00  0.00    +0.000 A 
ATOM     24  C12 UNK     0      -6.369  -0.031  -0.237  0.00  0.00    +0.000 A 
ATOM     25  C10 UNK     0      -5.531   1.098  -0.346  0.00  0.00    +0.000 A 
BRANCH  23  26
ATOM     26  O3  UNK     0      -6.666  -2.428  -0.387  0.00  0.00    +0.000 OA
ATOM     27  H40 UNK     0      -6.318  -3.363  -0.571  0.00  0.00    +0.000 HD
ENDBRANCH  23  26
BRANCH  24  28
ATOM     28  O1  UNK     0      -7.725   0.073   0.116  0.00  0.00    +0.000 OA
ATOM     29  C26 UNK     0      -8.400   1.303   0.370  0.00  0.00    +0.000 C 
ENDBRANCH  24  28
ENDBRANCH  19  20
ENDBRANCH  16  18
ENDBRANCH   1  16
TORSDOF 10
