REMARK  Name = C:\Users\Maximilian\Desktop\Conformers\converted_pdb\conformers_pdb\Circumin_conf_7.pdb
REMARK  12 active torsions:
REMARK  status: ('A' for Active; 'I' for Inactive)
REMARK    1  A    between atoms: C9_1  and  C21_2
REMARK    2  A    between atoms: C9_1  and  C20_16
REMARK    3  A    between atoms: C21_2  and  C25_4
REMARK    4  A    between atoms: C17_5  and  C8_6
REMARK    5  A    between atoms: C13_8  and  O2_12
REMARK    6  A    between atoms: C19_9  and  O4_14
REMARK    7  A    between atoms: O2_12  and  C27_13
REMARK    8  A    between atoms: C20_16  and  C24_18
REMARK    9  A    between atoms: C16_19  and  C7_20
REMARK   10  A    between atoms: C18_23  and  O3_26
REMARK   11  A    between atoms: C12_24  and  O1_28
REMARK   12  A    between atoms: O1_28  and  C26_29
REMARK                            x       y       z     vdW  Elec       q    Type
REMARK                         _______ _______ _______ _____ _____    ______ ____
ROOT
ATOM      1  C9  UNK     0       0.550   0.917  -1.747  0.00  0.00    +0.000 C 
ENDROOT
BRANCH   1   2
ATOM      2  C21 UNK     0      -0.614   0.089  -2.204  0.00  0.00    +0.000 C 
ATOM      3  O6  UNK     0      -0.521  -0.564  -3.279  0.00  0.00    +0.000 OA
BRANCH   2   4
ATOM      4  C25 UNK     0      -1.841   0.020  -1.386  0.00  0.00    +0.000 C 
ATOM      5  C17 UNK     0      -2.884  -0.752  -1.724  0.00  0.00    +0.000 C 
BRANCH   5   6
ATOM      6  C8  UNK     0      -4.125  -0.852  -0.917  0.00  0.00    +0.000 A 
ATOM      7  C11 UNK     0      -4.542   0.172  -0.042  0.00  0.00    +0.000 A 
ATOM      8  C13 UNK     0      -5.731   0.040   0.703  0.00  0.00    +0.000 A 
ATOM      9  C19 UNK     0      -6.509  -1.116   0.558  0.00  0.00    +0.000 A 
ATOM     10  C23 UNK     0      -6.110  -2.125  -0.329  0.00  0.00    +0.000 A 
ATOM     11  C15 UNK     0      -4.930  -1.991  -1.063  0.00  0.00    +0.000 A 
BRANCH   8  12
ATOM     12  O2  UNK     0      -6.173   1.035   1.591  0.00  0.00    +0.000 OA
ATOM     13  C27 UNK     0      -5.483   2.254   1.848  0.00  0.00    +0.000 C 
ENDBRANCH   8  12
BRANCH   9  14
ATOM     14  O4  UNK     0      -7.683  -1.254   1.296  0.00  0.00    +0.000 OA
ATOM     15  H41 UNK     0      -8.274  -2.072   1.205  0.00  0.00    +0.000 HD
ENDBRANCH   9  14
ENDBRANCH   5   6
ENDBRANCH   2   4
ENDBRANCH   1   2
BRANCH   1  16
ATOM     16  C20 UNK     0       1.542   0.067  -1.014  0.00  0.00    +0.000 C 
ATOM     17  O5  UNK     0       2.550  -0.370  -1.632  0.00  0.00    +0.000 OA
BRANCH  16  18
ATOM     18  C24 UNK     0       1.287  -0.323   0.390  0.00  0.00    +0.000 C 
ATOM     19  C16 UNK     0       2.212  -0.783   1.248  0.00  0.00    +0.000 C 
BRANCH  19  20
ATOM     20  C7  UNK     0       3.670  -0.782   1.007  0.00  0.00    +0.000 A 
ATOM     21  C14 UNK     0       4.418  -1.923   1.320  0.00  0.00    +0.000 A 
ATOM     22  C22 UNK     0       5.802  -1.925   1.148  0.00  0.00    +0.000 A 
ATOM     23  C18 UNK     0       6.461  -0.781   0.686  0.00  0.00    +0.000 A 
ATOM     24  C12 UNK     0       5.728   0.385   0.396  0.00  0.00    +0.000 A 
ATOM     25  C10 UNK     0       4.331   0.377   0.568  0.00  0.00    +0.000 A 
BRANCH  23  26
ATOM     26  O3  UNK     0       7.844  -0.819   0.525  0.00  0.00    +0.000 OA
ATOM     27  H40 UNK     0       8.372  -0.019   0.199  0.00  0.00    +0.000 HD
ENDBRANCH  23  26
BRANCH  24  28
ATOM     28  O1  UNK     0       6.416   1.524  -0.052  0.00  0.00    +0.000 OA
ATOM     29  C26 UNK     0       5.797   2.761  -0.388  0.00  0.00    +0.000 C 
ENDBRANCH  24  28
ENDBRANCH  19  20
ENDBRANCH  16  18
ENDBRANCH   1  16
TORSDOF 10
