REMARK  Name = C:\Users\Maximilian\Desktop\Conformers\converted_pdb\conformers_pdb\Circumin_conf_50.pdb
REMARK  12 active torsions:
REMARK  status: ('A' for Active; 'I' for Inactive)
REMARK    1  A    between atoms: C9_1  and  C21_2
REMARK    2  A    between atoms: C9_1  and  C20_16
REMARK    3  A    between atoms: C21_2  and  C25_4
REMARK    4  A    between atoms: C17_5  and  C8_6
REMARK    5  A    between atoms: C13_8  and  O2_12
REMARK    6  A    between atoms: C19_9  and  O4_14
REMARK    7  A    between atoms: O2_12  and  C27_13
REMARK    8  A    between atoms: C20_16  and  C24_18
REMARK    9  A    between atoms: C16_19  and  C7_20
REMARK   10  A    between atoms: C18_23  and  O3_26
REMARK   11  A    between atoms: C12_24  and  O1_28
REMARK   12  A    between atoms: O1_28  and  C26_29
REMARK                            x       y       z     vdW  Elec       q    Type
REMARK                         _______ _______ _______ _____ _____    ______ ____
ROOT
ATOM      1  C9  UNK     0      -0.298   1.860   0.133  0.00  0.00    +0.000 C 
ENDROOT
BRANCH   1   2
ATOM      2  C21 UNK     0       0.698   1.305  -0.840  0.00  0.00    +0.000 C 
ATOM      3  O6  UNK     0       0.295   0.871  -1.954  0.00  0.00    +0.000 OA
BRANCH   2   4
ATOM      4  C25 UNK     0       2.129   1.235  -0.475  0.00  0.00    +0.000 C 
ATOM      5  C17 UNK     0       3.059   0.749  -1.311  0.00  0.00    +0.000 C 
BRANCH   5   6
ATOM      6  C8  UNK     0       4.503   0.657  -0.974  0.00  0.00    +0.000 A 
ATOM      7  C11 UNK     0       5.310  -0.238  -1.699  0.00  0.00    +0.000 A 
ATOM      8  C13 UNK     0       6.686  -0.360  -1.418  0.00  0.00    +0.000 A 
ATOM      9  C19 UNK     0       7.253   0.430  -0.407  0.00  0.00    +0.000 A 
ATOM     10  C23 UNK     0       6.459   1.339   0.305  0.00  0.00    +0.000 A 
ATOM     11  C15 UNK     0       5.098   1.459   0.022  0.00  0.00    +0.000 A 
BRANCH   8  12
ATOM     12  O2  UNK     0       7.516  -1.251  -2.116  0.00  0.00    +0.000 OA
ATOM     13  C27 UNK     0       7.072  -2.115  -3.159  0.00  0.00    +0.000 C 
ENDBRANCH   8  12
BRANCH   9  14
ATOM     14  O4  UNK     0       8.610   0.307  -0.113  0.00  0.00    +0.000 OA
ATOM     15  H41 UNK     0       9.042   0.855   0.623  0.00  0.00    +0.000 HD
ENDBRANCH   9  14
ENDBRANCH   5   6
ENDBRANCH   2   4
ENDBRANCH   1   2
BRANCH   1  16
ATOM     16  C20 UNK     0      -0.886   0.758   0.965  0.00  0.00    +0.000 C 
ATOM     17  O5  UNK     0      -0.150   0.153   1.790  0.00  0.00    +0.000 OA
BRANCH  16  18
ATOM     18  C24 UNK     0      -2.309   0.393   0.825  0.00  0.00    +0.000 C 
ATOM     19  C16 UNK     0      -2.868  -0.591   1.546  0.00  0.00    +0.000 C 
BRANCH  19  20
ATOM     20  C7  UNK     0      -4.300  -0.974   1.442  0.00  0.00    +0.000 A 
ATOM     21  C14 UNK     0      -4.678  -2.266   1.839  0.00  0.00    +0.000 A 
ATOM     22  C22 UNK     0      -6.014  -2.663   1.780  0.00  0.00    +0.000 A 
ATOM     23  C18 UNK     0      -6.999  -1.771   1.333  0.00  0.00    +0.000 A 
ATOM     24  C12 UNK     0      -6.647  -0.471   0.942  0.00  0.00    +0.000 A 
ATOM     25  C10 UNK     0      -5.296  -0.074   1.006  0.00  0.00    +0.000 A 
BRANCH  23  26
ATOM     26  O3  UNK     0      -8.335  -2.166   1.279  0.00  0.00    +0.000 OA
ATOM     27  H40 UNK     0      -8.627  -3.093   1.570  0.00  0.00    +0.000 HD
ENDBRANCH  23  26
BRANCH  24  28
ATOM     28  O1  UNK     0      -7.668   0.393   0.501  0.00  0.00    +0.000 OA
ATOM     29  C26 UNK     0      -7.455   1.734   0.073  0.00  0.00    +0.000 C 
ENDBRANCH  24  28
ENDBRANCH  19  20
ENDBRANCH  16  18
ENDBRANCH   1  16
TORSDOF 10
