REMARK  Name = C:\Users\Maximilian\Desktop\Conformers\converted_pdb\conformers_pdb\Circumin_conf_8.pdb
REMARK  12 active torsions:
REMARK  status: ('A' for Active; 'I' for Inactive)
REMARK    1  A    between atoms: C9_1  and  C21_2
REMARK    2  A    between atoms: C9_1  and  C20_16
REMARK    3  A    between atoms: C21_2  and  C25_4
REMARK    4  A    between atoms: C17_5  and  C8_6
REMARK    5  A    between atoms: C13_8  and  O2_12
REMARK    6  A    between atoms: C19_9  and  O4_14
REMARK    7  A    between atoms: O2_12  and  C27_13
REMARK    8  A    between atoms: C20_16  and  C24_18
REMARK    9  A    between atoms: C16_19  and  C7_20
REMARK   10  A    between atoms: C18_23  and  O3_26
REMARK   11  A    between atoms: C12_24  and  O1_28
REMARK   12  A    between atoms: O1_28  and  C26_29
REMARK                            x       y       z     vdW  Elec       q    Type
REMARK                         _______ _______ _______ _____ _____    ______ ____
ROOT
ATOM      1  C9  UNK     0      -0.302   1.251   0.928  0.00  0.00    +0.000 C 
ENDROOT
BRANCH   1   2
ATOM      2  C21 UNK     0      -0.851   0.118   1.764  0.00  0.00    +0.000 C 
ATOM      3  O6  UNK     0      -0.158  -0.363   2.702  0.00  0.00    +0.000 OA
BRANCH   2   4
ATOM      4  C25 UNK     0      -2.202  -0.438   1.542  0.00  0.00    +0.000 C 
ATOM      5  C17 UNK     0      -3.087   0.094   0.684  0.00  0.00    +0.000 C 
BRANCH   5   6
ATOM      6  C8  UNK     0      -4.450  -0.452   0.468  0.00  0.00    +0.000 A 
ATOM      7  C11 UNK     0      -5.439   0.396  -0.057  0.00  0.00    +0.000 A 
ATOM      8  C13 UNK     0      -6.748  -0.074  -0.287  0.00  0.00    +0.000 A 
ATOM      9  C19 UNK     0      -7.057  -1.414   0.003  0.00  0.00    +0.000 A 
ATOM     10  C23 UNK     0      -6.070  -2.265   0.508  0.00  0.00    +0.000 A 
ATOM     11  C15 UNK     0      -4.776  -1.794   0.736  0.00  0.00    +0.000 A 
BRANCH   8  12
ATOM     12  O2  UNK     0      -7.757   0.757  -0.801  0.00  0.00    +0.000 OA
ATOM     13  C27 UNK     0      -7.582   2.130  -1.135  0.00  0.00    +0.000 C 
ENDBRANCH   8  12
BRANCH   9  14
ATOM     14  O4  UNK     0      -8.339  -1.921  -0.208  0.00  0.00    +0.000 OA
ATOM     15  H41 UNK     0      -9.092  -1.351  -0.575  0.00  0.00    +0.000 HD
ENDBRANCH   9  14
ENDBRANCH   5   6
ENDBRANCH   2   4
ENDBRANCH   1   2
BRANCH   1  16
ATOM     16  C20 UNK     0       1.169   1.464   1.151  0.00  0.00    +0.000 C 
ATOM     17  O5  UNK     0       1.548   2.353   1.962  0.00  0.00    +0.000 OA
BRANCH  16  18
ATOM     18  C24 UNK     0       2.152   0.608   0.457  0.00  0.00    +0.000 C 
ATOM     19  C16 UNK     0       3.474   0.765   0.616  0.00  0.00    +0.000 C 
BRANCH  19  20
ATOM     20  C7  UNK     0       4.491  -0.070  -0.070  0.00  0.00    +0.000 A 
ATOM     21  C14 UNK     0       4.204  -1.357  -0.563  0.00  0.00    +0.000 A 
ATOM     22  C22 UNK     0       5.198  -2.110  -1.193  0.00  0.00    +0.000 A 
ATOM     23  C18 UNK     0       6.493  -1.597  -1.332  0.00  0.00    +0.000 A 
ATOM     24  C12 UNK     0       6.803  -0.326  -0.832  0.00  0.00    +0.000 A 
ATOM     25  C10 UNK     0       5.798   0.431  -0.198  0.00  0.00    +0.000 A 
BRANCH  23  26
ATOM     26  O3  UNK     0       7.482  -2.350  -1.963  0.00  0.00    +0.000 OA
ATOM     27  H40 UNK     0       7.290  -3.273  -2.334  0.00  0.00    +0.000 HD
ENDBRANCH  23  26
BRANCH  24  28
ATOM     28  O1  UNK     0       8.115   0.150  -0.985  0.00  0.00    +0.000 OA
ATOM     29  C26 UNK     0       8.572   1.417  -0.523  0.00  0.00    +0.000 C 
ENDBRANCH  24  28
ENDBRANCH  19  20
ENDBRANCH  16  18
ENDBRANCH   1  16
TORSDOF 10
