REMARK  Name = C:\Users\Maximilian\Desktop\Conformers\converted_pdb\conformers_pdb\Circumin_conf_73.pdb
REMARK  12 active torsions:
REMARK  status: ('A' for Active; 'I' for Inactive)
REMARK    1  A    between atoms: C9_1  and  C21_2
REMARK    2  A    between atoms: C9_1  and  C20_16
REMARK    3  A    between atoms: C21_2  and  C25_4
REMARK    4  A    between atoms: C17_5  and  C8_6
REMARK    5  A    between atoms: C13_8  and  O2_12
REMARK    6  A    between atoms: C19_9  and  O4_14
REMARK    7  A    between atoms: O2_12  and  C27_13
REMARK    8  A    between atoms: C20_16  and  C24_18
REMARK    9  A    between atoms: C16_19  and  C7_20
REMARK   10  A    between atoms: C18_23  and  O3_26
REMARK   11  A    between atoms: C12_24  and  O1_28
REMARK   12  A    between atoms: O1_28  and  C26_29
REMARK                            x       y       z     vdW  Elec       q    Type
REMARK                         _______ _______ _______ _____ _____    ______ ____
ROOT
ATOM      1  C9  UNK     0      -0.014   0.602  -0.043  0.00  0.00    +0.000 C 
ENDROOT
BRANCH   1   2
ATOM      2  C21 UNK     0      -0.856  -0.463  -0.707  0.00  0.00    +0.000 C 
ATOM      3  O6  UNK     0      -0.300  -1.408  -1.330  0.00  0.00    +0.000 OA
BRANCH   2   4
ATOM      4  C25 UNK     0      -2.334  -0.440  -0.654  0.00  0.00    +0.000 C 
ATOM      5  C17 UNK     0      -3.035   0.533  -0.053  0.00  0.00    +0.000 C 
BRANCH   5   6
ATOM      6  C8  UNK     0      -4.518   0.564  -0.006  0.00  0.00    +0.000 A 
ATOM      7  C11 UNK     0      -5.303  -0.603  -0.101  0.00  0.00    +0.000 A 
ATOM      8  C13 UNK     0      -6.709  -0.530  -0.041  0.00  0.00    +0.000 A 
ATOM      9  C19 UNK     0      -7.326   0.717   0.125  0.00  0.00    +0.000 A 
ATOM     10  C23 UNK     0      -6.549   1.876   0.239  0.00  0.00    +0.000 A 
ATOM     11  C15 UNK     0      -5.157   1.799   0.179  0.00  0.00    +0.000 A 
BRANCH   8  12
ATOM     12  O2  UNK     0      -7.523  -1.670  -0.139  0.00  0.00    +0.000 OA
ATOM     13  C27 UNK     0      -7.038  -2.997  -0.313  0.00  0.00    +0.000 C 
ENDBRANCH   8  12
BRANCH   9  14
ATOM     14  O4  UNK     0      -8.717   0.796   0.181  0.00  0.00    +0.000 OA
ATOM     15  H41 UNK     0      -9.194   1.682   0.302  0.00  0.00    +0.000 HD
ENDBRANCH   9  14
ENDBRANCH   5   6
ENDBRANCH   2   4
ENDBRANCH   1   2
BRANCH   1  16
ATOM     16  C20 UNK     0       1.459   0.339  -0.176  0.00  0.00    +0.000 C 
ATOM     17  O5  UNK     0       2.037  -0.360   0.700  0.00  0.00    +0.000 OA
BRANCH  16  18
ATOM     18  C24 UNK     0       2.183   0.805  -1.379  0.00  0.00    +0.000 C 
ATOM     19  C16 UNK     0       3.516   0.908  -1.494  0.00  0.00    +0.000 C 
BRANCH  19  20
ATOM     20  C7  UNK     0       4.484   0.751  -0.389  0.00  0.00    +0.000 A 
ATOM     21  C14 UNK     0       4.319   1.439   0.824  0.00  0.00    +0.000 A 
ATOM     22  C22 UNK     0       5.270   1.313   1.838  0.00  0.00    +0.000 A 
ATOM     23  C18 UNK     0       6.406   0.521   1.650  0.00  0.00    +0.000 A 
ATOM     24  C12 UNK     0       6.602  -0.151   0.429  0.00  0.00    +0.000 A 
ATOM     25  C10 UNK     0       5.637  -0.021  -0.590  0.00  0.00    +0.000 A 
BRANCH  23  26
ATOM     26  O3  UNK     0       7.333   0.417   2.687  0.00  0.00    +0.000 OA
ATOM     27  H40 UNK     0       8.173  -0.144   2.607  0.00  0.00    +0.000 HD
ENDBRANCH  23  26
BRANCH  24  28
ATOM     28  O1  UNK     0       7.758  -0.931   0.264  0.00  0.00    +0.000 OA
ATOM     29  C26 UNK     0       8.081  -1.655  -0.919  0.00  0.00    +0.000 C 
ENDBRANCH  24  28
ENDBRANCH  19  20
ENDBRANCH  16  18
ENDBRANCH   1  16
TORSDOF 10
