REMARK  Name = C:\Users\Maximilian\Desktop\Conformers\converted_pdb\conformers_pdb\Circumin_conf_32.pdb
REMARK  12 active torsions:
REMARK  status: ('A' for Active; 'I' for Inactive)
REMARK    1  A    between atoms: C9_1  and  C21_2
REMARK    2  A    between atoms: C9_1  and  C20_16
REMARK    3  A    between atoms: C21_2  and  C25_4
REMARK    4  A    between atoms: C17_5  and  C8_6
REMARK    5  A    between atoms: C13_8  and  O2_12
REMARK    6  A    between atoms: C19_9  and  O4_14
REMARK    7  A    between atoms: O2_12  and  C27_13
REMARK    8  A    between atoms: C20_16  and  C24_18
REMARK    9  A    between atoms: C16_19  and  C7_20
REMARK   10  A    between atoms: C18_23  and  O3_26
REMARK   11  A    between atoms: C12_24  and  O1_28
REMARK   12  A    between atoms: O1_28  and  C26_29
REMARK                            x       y       z     vdW  Elec       q    Type
REMARK                         _______ _______ _______ _____ _____    ______ ____
ROOT
ATOM      1  C9  UNK     0      -0.566  -0.861   1.154  0.00  0.00    +0.000 C 
ENDROOT
BRANCH   1   2
ATOM      2  C21 UNK     0       0.845  -0.521   0.783  0.00  0.00    +0.000 C 
ATOM      3  O6  UNK     0       1.534  -1.365   0.149  0.00  0.00    +0.000 OA
BRANCH   2   4
ATOM      4  C25 UNK     0       1.374   0.831   1.069  0.00  0.00    +0.000 C 
ATOM      5  C17 UNK     0       2.673   1.171   1.098  0.00  0.00    +0.000 C 
BRANCH   5   6
ATOM      6  C8  UNK     0       3.809   0.227   1.028  0.00  0.00    +0.000 A 
ATOM      7  C11 UNK     0       4.911   0.542   0.219  0.00  0.00    +0.000 A 
ATOM      8  C13 UNK     0       6.035  -0.308   0.173  0.00  0.00    +0.000 A 
ATOM      9  C19 UNK     0       6.050  -1.469   0.967  0.00  0.00    +0.000 A 
ATOM     10  C23 UNK     0       4.962  -1.767   1.794  0.00  0.00    +0.000 A 
ATOM     11  C15 UNK     0       3.853  -0.920   1.835  0.00  0.00    +0.000 A 
BRANCH   8  12
ATOM     12  O2  UNK     0       7.146  -0.029  -0.640  0.00  0.00    +0.000 OA
ATOM     13  C27 UNK     0       7.272   1.123  -1.467  0.00  0.00    +0.000 C 
ENDBRANCH   8  12
BRANCH   9  14
ATOM     14  O4  UNK     0       7.142  -2.336   0.957  0.00  0.00    +0.000 OA
ATOM     15  H41 UNK     0       7.960  -2.168   0.383  0.00  0.00    +0.000 HD
ENDBRANCH   9  14
ENDBRANCH   5   6
ENDBRANCH   2   4
ENDBRANCH   1   2
BRANCH   1  16
ATOM     16  C20 UNK     0      -1.501  -0.476   0.049  0.00  0.00    +0.000 C 
ATOM     17  O5  UNK     0      -1.923   0.710  -0.012  0.00  0.00    +0.000 OA
BRANCH  16  18
ATOM     18  C24 UNK     0      -1.833  -1.455  -1.009  0.00  0.00    +0.000 C 
ATOM     19  C16 UNK     0      -2.877  -1.372  -1.849  0.00  0.00    +0.000 C 
BRANCH  19  20
ATOM     20  C7  UNK     0      -3.977  -0.389  -1.753  0.00  0.00    +0.000 A 
ATOM     21  C14 UNK     0      -4.431   0.245  -2.917  0.00  0.00    +0.000 A 
ATOM     22  C22 UNK     0      -5.497   1.144  -2.860  0.00  0.00    +0.000 A 
ATOM     23  C18 UNK     0      -6.137   1.408  -1.645  0.00  0.00    +0.000 A 
ATOM     24  C12 UNK     0      -5.715   0.759  -0.470  0.00  0.00    +0.000 A 
ATOM     25  C10 UNK     0      -4.640  -0.151  -0.536  0.00  0.00    +0.000 A 
BRANCH  23  26
ATOM     26  O3  UNK     0      -7.196   2.316  -1.626  0.00  0.00    +0.000 OA
ATOM     27  H40 UNK     0      -7.694   2.548  -0.775  0.00  0.00    +0.000 HD
ENDBRANCH  23  26
BRANCH  24  28
ATOM     28  O1  UNK     0      -6.381   1.035   0.735  0.00  0.00    +0.000 OA
ATOM     29  C26 UNK     0      -6.043   0.464   1.995  0.00  0.00    +0.000 C 
ENDBRANCH  24  28
ENDBRANCH  19  20
ENDBRANCH  16  18
ENDBRANCH   1  16
TORSDOF 10
