REMARK  Name = C:\Users\Maximilian\Desktop\Conformers\converted_pdb\conformers_pdb\Circumin_conf_48.pdb
REMARK  12 active torsions:
REMARK  status: ('A' for Active; 'I' for Inactive)
REMARK    1  A    between atoms: C9_1  and  C21_2
REMARK    2  A    between atoms: C9_1  and  C20_16
REMARK    3  A    between atoms: C21_2  and  C25_4
REMARK    4  A    between atoms: C17_5  and  C8_6
REMARK    5  A    between atoms: C13_8  and  O2_12
REMARK    6  A    between atoms: C19_9  and  O4_14
REMARK    7  A    between atoms: O2_12  and  C27_13
REMARK    8  A    between atoms: C20_16  and  C24_18
REMARK    9  A    between atoms: C16_19  and  C7_20
REMARK   10  A    between atoms: C18_23  and  O3_26
REMARK   11  A    between atoms: C12_24  and  O1_28
REMARK   12  A    between atoms: O1_28  and  C26_29
REMARK                            x       y       z     vdW  Elec       q    Type
REMARK                         _______ _______ _______ _____ _____    ______ ____
ROOT
ATOM      1  C9  UNK     0      -0.268   0.418  -0.641  0.00  0.00    +0.000 C 
ENDROOT
BRANCH   1   2
ATOM      2  C21 UNK     0       0.681   1.131  -1.575  0.00  0.00    +0.000 C 
ATOM      3  O6  UNK     0       0.227   1.827  -2.524  0.00  0.00    +0.000 OA
BRANCH   2   4
ATOM      4  C25 UNK     0       2.148   1.064  -1.404  0.00  0.00    +0.000 C 
ATOM      5  C17 UNK     0       2.742   0.474  -0.355  0.00  0.00    +0.000 C 
BRANCH   5   6
ATOM      6  C8  UNK     0       4.213   0.415  -0.172  0.00  0.00    +0.000 A 
ATOM      7  C11 UNK     0       4.724   0.223   1.123  0.00  0.00    +0.000 A 
ATOM      8  C13 UNK     0       6.113   0.149   1.348  0.00  0.00    +0.000 A 
ATOM      9  C19 UNK     0       6.991   0.256   0.262  0.00  0.00    +0.000 A 
ATOM     10  C23 UNK     0       6.488   0.430  -1.033  0.00  0.00    +0.000 A 
ATOM     11  C15 UNK     0       5.111   0.504  -1.252  0.00  0.00    +0.000 A 
BRANCH   8  12
ATOM     12  O2  UNK     0       6.655  -0.031   2.630  0.00  0.00    +0.000 OA
ATOM     13  C27 UNK     0       5.885  -0.160   3.821  0.00  0.00    +0.000 C 
ENDBRANCH   8  12
BRANCH   9  14
ATOM     14  O4  UNK     0       8.366   0.185   0.477  0.00  0.00    +0.000 OA
ATOM     15  H41 UNK     0       9.028   0.256  -0.287  0.00  0.00    +0.000 HD
ENDBRANCH   9  14
ENDBRANCH   5   6
ENDBRANCH   2   4
ENDBRANCH   1   2
BRANCH   1  16
ATOM     16  C20 UNK     0      -1.685   0.436  -1.140  0.00  0.00    +0.000 C 
ATOM     17  O5  UNK     0      -2.450   1.372  -0.783  0.00  0.00    +0.000 OA
BRANCH  16  18
ATOM     18  C24 UNK     0      -2.129  -0.576  -2.124  0.00  0.00    +0.000 C 
ATOM     19  C16 UNK     0      -3.405  -0.877  -2.410  0.00  0.00    +0.000 C 
BRANCH  19  20
ATOM     20  C7  UNK     0      -4.586  -0.388  -1.667  0.00  0.00    +0.000 A 
ATOM     21  C14 UNK     0      -5.704   0.061  -2.380  0.00  0.00    +0.000 A 
ATOM     22  C22 UNK     0      -6.847   0.488  -1.701  0.00  0.00    +0.000 A 
ATOM     23  C18 UNK     0      -6.896   0.453  -0.304  0.00  0.00    +0.000 A 
ATOM     24  C12 UNK     0      -5.794  -0.025   0.428  0.00  0.00    +0.000 A 
ATOM     25  C10 UNK     0      -4.645  -0.457  -0.264  0.00  0.00    +0.000 A 
BRANCH  23  26
ATOM     26  O3  UNK     0      -8.053   0.892   0.340  0.00  0.00    +0.000 OA
ATOM     27  H40 UNK     0      -8.144   0.888   1.349  0.00  0.00    +0.000 HD
ENDBRANCH  23  26
BRANCH  24  28
ATOM     28  O1  UNK     0      -5.873  -0.058   1.829  0.00  0.00    +0.000 OA
ATOM     29  C26 UNK     0      -4.827  -0.502   2.687  0.00  0.00    +0.000 C 
ENDBRANCH  24  28
ENDBRANCH  19  20
ENDBRANCH  16  18
ENDBRANCH   1  16
TORSDOF 10
