REMARK  Name = C:\Users\Maximilian\Desktop\Conformers\converted_pdb\conformers_pdb\Circumin_conf_57.pdb
REMARK  12 active torsions:
REMARK  status: ('A' for Active; 'I' for Inactive)
REMARK    1  A    between atoms: C9_1  and  C21_2
REMARK    2  A    between atoms: C9_1  and  C20_16
REMARK    3  A    between atoms: C21_2  and  C25_4
REMARK    4  A    between atoms: C17_5  and  C8_6
REMARK    5  A    between atoms: C13_8  and  O2_12
REMARK    6  A    between atoms: C19_9  and  O4_14
REMARK    7  A    between atoms: O2_12  and  C27_13
REMARK    8  A    between atoms: C20_16  and  C24_18
REMARK    9  A    between atoms: C16_19  and  C7_20
REMARK   10  A    between atoms: C18_23  and  O3_26
REMARK   11  A    between atoms: C12_24  and  O1_28
REMARK   12  A    between atoms: O1_28  and  C26_29
REMARK                            x       y       z     vdW  Elec       q    Type
REMARK                         _______ _______ _______ _____ _____    ______ ____
ROOT
ATOM      1  C9  UNK     0       0.444  -2.090  -1.760  0.00  0.00    +0.000 C 
ENDROOT
BRANCH   1   2
ATOM      2  C21 UNK     0      -0.587  -1.006  -1.668  0.00  0.00    +0.000 C 
ATOM      3  O6  UNK     0      -0.364   0.105  -2.223  0.00  0.00    +0.000 OA
BRANCH   2   4
ATOM      4  C25 UNK     0      -1.827  -1.229  -0.898  0.00  0.00    +0.000 C 
ATOM      5  C17 UNK     0      -2.779  -0.291  -0.790  0.00  0.00    +0.000 C 
BRANCH   5   6
ATOM      6  C8  UNK     0      -4.039  -0.481  -0.029  0.00  0.00    +0.000 A 
ATOM      7  C11 UNK     0      -5.140   0.335  -0.336  0.00  0.00    +0.000 A 
ATOM      8  C13 UNK     0      -6.356   0.202   0.364  0.00  0.00    +0.000 A 
ATOM      9  C19 UNK     0      -6.459  -0.752   1.386  0.00  0.00    +0.000 A 
ATOM     10  C23 UNK     0      -5.360  -1.557   1.707  0.00  0.00    +0.000 A 
ATOM     11  C15 UNK     0      -4.158  -1.423   1.011  0.00  0.00    +0.000 A 
BRANCH   8  12
ATOM     12  O2  UNK     0      -7.478   0.995   0.075  0.00  0.00    +0.000 OA
ATOM     13  C27 UNK     0      -7.517   2.000  -0.933  0.00  0.00    +0.000 C 
ENDBRANCH   8  12
BRANCH   9  14
ATOM     14  O4  UNK     0      -7.659  -0.890   2.082  0.00  0.00    +0.000 OA
ATOM     15  H41 UNK     0      -7.765  -1.569   2.826  0.00  0.00    +0.000 HD
ENDBRANCH   9  14
ENDBRANCH   5   6
ENDBRANCH   2   4
ENDBRANCH   1   2
BRANCH   1  16
ATOM     16  C20 UNK     0       1.279  -2.115  -0.515  0.00  0.00    +0.000 C 
ATOM     17  O5  UNK     0       1.004  -2.943   0.396  0.00  0.00    +0.000 OA
BRANCH  16  18
ATOM     18  C24 UNK     0       2.384  -1.149  -0.348  0.00  0.00    +0.000 C 
ATOM     19  C16 UNK     0       3.132  -1.105   0.764  0.00  0.00    +0.000 C 
BRANCH  19  20
ATOM     20  C7  UNK     0       4.237  -0.138   0.973  0.00  0.00    +0.000 A 
ATOM     21  C14 UNK     0       4.632   0.154   2.287  0.00  0.00    +0.000 A 
ATOM     22  C22 UNK     0       5.672   1.052   2.533  0.00  0.00    +0.000 A 
ATOM     23  C18 UNK     0       6.343   1.664   1.468  0.00  0.00    +0.000 A 
ATOM     24  C12 UNK     0       5.979   1.373   0.147  0.00  0.00    +0.000 A 
ATOM     25  C10 UNK     0       4.927   0.466  -0.097  0.00  0.00    +0.000 A 
BRANCH  23  26
ATOM     26  O3  UNK     0       7.380   2.563   1.715  0.00  0.00    +0.000 OA
ATOM     27  H40 UNK     0       7.669   2.793   2.658  0.00  0.00    +0.000 HD
ENDBRANCH  23  26
BRANCH  24  28
ATOM     28  O1  UNK     0       6.684   1.999  -0.893  0.00  0.00    +0.000 OA
ATOM     29  C26 UNK     0       6.422   1.804  -2.279  0.00  0.00    +0.000 C 
ENDBRANCH  24  28
ENDBRANCH  19  20
ENDBRANCH  16  18
ENDBRANCH   1  16
TORSDOF 10
