REMARK  Name = C:\Users\Maximilian\Desktop\Conformers\converted_pdb\conformers_pdb\Circumin_conf_41.pdb
REMARK  12 active torsions:
REMARK  status: ('A' for Active; 'I' for Inactive)
REMARK    1  A    between atoms: C9_1  and  C21_2
REMARK    2  A    between atoms: C9_1  and  C20_16
REMARK    3  A    between atoms: C21_2  and  C25_4
REMARK    4  A    between atoms: C17_5  and  C8_6
REMARK    5  A    between atoms: C13_8  and  O2_12
REMARK    6  A    between atoms: C19_9  and  O4_14
REMARK    7  A    between atoms: O2_12  and  C27_13
REMARK    8  A    between atoms: C20_16  and  C24_18
REMARK    9  A    between atoms: C16_19  and  C7_20
REMARK   10  A    between atoms: C18_23  and  O3_26
REMARK   11  A    between atoms: C12_24  and  O1_28
REMARK   12  A    between atoms: O1_28  and  C26_29
REMARK                            x       y       z     vdW  Elec       q    Type
REMARK                         _______ _______ _______ _____ _____    ______ ____
ROOT
ATOM      1  C9  UNK     0      -0.151   2.114  -1.376  0.00  0.00    +0.000 C 
ENDROOT
BRANCH   1   2
ATOM      2  C21 UNK     0      -0.502   2.217   0.090  0.00  0.00    +0.000 C 
ATOM      3  O6  UNK     0       0.267   2.834   0.877  0.00  0.00    +0.000 OA
BRANCH   2   4
ATOM      4  C25 UNK     0      -1.747   1.643   0.645  0.00  0.00    +0.000 C 
ATOM      5  C17 UNK     0      -2.705   1.085  -0.112  0.00  0.00    +0.000 C 
BRANCH   5   6
ATOM      6  C8  UNK     0      -3.951   0.499   0.441  0.00  0.00    +0.000 A 
ATOM      7  C11 UNK     0      -4.646  -0.451  -0.327  0.00  0.00    +0.000 A 
ATOM      8  C13 UNK     0      -5.839  -1.031   0.149  0.00  0.00    +0.000 A 
ATOM      9  C19 UNK     0      -6.341  -0.644   1.399  0.00  0.00    +0.000 A 
ATOM     10  C23 UNK     0      -5.662   0.314   2.161  0.00  0.00    +0.000 A 
ATOM     11  C15 UNK     0      -4.480   0.886   1.687  0.00  0.00    +0.000 A 
BRANCH   8  12
ATOM     12  O2  UNK     0      -6.552  -1.990  -0.589  0.00  0.00    +0.000 OA
ATOM     13  C27 UNK     0      -6.161  -2.476  -1.869  0.00  0.00    +0.000 C 
ENDBRANCH   8  12
BRANCH   9  14
ATOM     14  O4  UNK     0      -7.520  -1.214   1.875  0.00  0.00    +0.000 OA
ATOM     15  H41 UNK     0      -7.909  -0.955   2.774  0.00  0.00    +0.000 HD
ENDBRANCH   9  14
ENDBRANCH   5   6
ENDBRANCH   2   4
ENDBRANCH   1   2
BRANCH   1  16
ATOM     16  C20 UNK     0       1.275   2.513  -1.659  0.00  0.00    +0.000 C 
ATOM     17  O5  UNK     0       1.493   3.632  -2.196  0.00  0.00    +0.000 OA
BRANCH  16  18
ATOM     18  C24 UNK     0       2.436   1.661  -1.316  0.00  0.00    +0.000 C 
ATOM     19  C16 UNK     0       2.327   0.477  -0.695  0.00  0.00    +0.000 C 
BRANCH  19  20
ATOM     20  C7  UNK     0       3.489  -0.381  -0.355  0.00  0.00    +0.000 A 
ATOM     21  C14 UNK     0       3.277  -1.756  -0.176  0.00  0.00    +0.000 A 
ATOM     22  C22 UNK     0       4.338  -2.600   0.154  0.00  0.00    +0.000 A 
ATOM     23  C18 UNK     0       5.627  -2.082   0.323  0.00  0.00    +0.000 A 
ATOM     24  C12 UNK     0       5.859  -0.709   0.168  0.00  0.00    +0.000 A 
ATOM     25  C10 UNK     0       4.784   0.141  -0.166  0.00  0.00    +0.000 A 
BRANCH  23  26
ATOM     26  O3  UNK     0       6.687  -2.927   0.650  0.00  0.00    +0.000 OA
ATOM     27  H40 UNK     0       6.552  -3.924   0.770  0.00  0.00    +0.000 HD
ENDBRANCH  23  26
BRANCH  24  28
ATOM     28  O1  UNK     0       7.164  -0.227   0.357  0.00  0.00    +0.000 OA
ATOM     29  C26 UNK     0       7.547   1.139   0.231  0.00  0.00    +0.000 C 
ENDBRANCH  24  28
ENDBRANCH  19  20
ENDBRANCH  16  18
ENDBRANCH   1  16
TORSDOF 10
