REMARK  Name = C:\Users\Maximilian\Desktop\Conformers\converted_pdb\conformers_pdb\Circumin_conf_42.pdb
REMARK  12 active torsions:
REMARK  status: ('A' for Active; 'I' for Inactive)
REMARK    1  A    between atoms: C9_1  and  C21_2
REMARK    2  A    between atoms: C9_1  and  C20_16
REMARK    3  A    between atoms: C21_2  and  C25_4
REMARK    4  A    between atoms: C17_5  and  C8_6
REMARK    5  A    between atoms: C13_8  and  O2_12
REMARK    6  A    between atoms: C19_9  and  O4_14
REMARK    7  A    between atoms: O2_12  and  C27_13
REMARK    8  A    between atoms: C20_16  and  C24_18
REMARK    9  A    between atoms: C16_19  and  C7_20
REMARK   10  A    between atoms: C18_23  and  O3_26
REMARK   11  A    between atoms: C12_24  and  O1_28
REMARK   12  A    between atoms: O1_28  and  C26_29
REMARK                            x       y       z     vdW  Elec       q    Type
REMARK                         _______ _______ _______ _____ _____    ______ ____
ROOT
ATOM      1  C9  UNK     0       0.701   2.558   0.250  0.00  0.00    +0.000 C 
ENDROOT
BRANCH   1   2
ATOM      2  C21 UNK     0      -0.719   2.434  -0.213  0.00  0.00    +0.000 C 
ATOM      3  O6  UNK     0      -1.129   3.172  -1.151  0.00  0.00    +0.000 OA
BRANCH   2   4
ATOM      4  C25 UNK     0      -1.612   1.429   0.400  0.00  0.00    +0.000 C 
ATOM      5  C17 UNK     0      -2.876   1.253  -0.009  0.00  0.00    +0.000 C 
BRANCH   5   6
ATOM      6  C8  UNK     0      -3.795   0.242   0.571  0.00  0.00    +0.000 A 
ATOM      7  C11 UNK     0      -4.900  -0.177  -0.189  0.00  0.00    +0.000 A 
ATOM      8  C13 UNK     0      -5.808  -1.127   0.320  0.00  0.00    +0.000 A 
ATOM      9  C19 UNK     0      -5.608  -1.649   1.604  0.00  0.00    +0.000 A 
ATOM     10  C23 UNK     0      -4.518  -1.223   2.373  0.00  0.00    +0.000 A 
ATOM     11  C15 UNK     0      -3.621  -0.282   1.866  0.00  0.00    +0.000 A 
BRANCH   8  12
ATOM     12  O2  UNK     0      -6.915  -1.575  -0.418  0.00  0.00    +0.000 OA
ATOM     13  C27 UNK     0      -7.241  -1.133  -1.732  0.00  0.00    +0.000 C 
ENDBRANCH   8  12
BRANCH   9  14
ATOM     14  O4  UNK     0      -6.502  -2.590   2.113  0.00  0.00    +0.000 OA
ATOM     15  H41 UNK     0      -6.386  -2.986   3.039  0.00  0.00    +0.000 HD
ENDBRANCH   9  14
ENDBRANCH   5   6
ENDBRANCH   2   4
ENDBRANCH   1   2
BRANCH   1  16
ATOM     16  C20 UNK     0       1.551   1.514  -0.408  0.00  0.00    +0.000 C 
ATOM     17  O5  UNK     0       1.688   0.393   0.152  0.00  0.00    +0.000 OA
BRANCH  16  18
ATOM     18  C24 UNK     0       2.125   1.771  -1.748  0.00  0.00    +0.000 C 
ATOM     19  C16 UNK     0       3.127   1.079  -2.312  0.00  0.00    +0.000 C 
BRANCH  19  20
ATOM     20  C7  UNK     0       3.955   0.062  -1.629  0.00  0.00    +0.000 A 
ATOM     21  C14 UNK     0       4.242  -1.139  -2.288  0.00  0.00    +0.000 A 
ATOM     22  C22 UNK     0       5.056  -2.098  -1.681  0.00  0.00    +0.000 A 
ATOM     23  C18 UNK     0       5.610  -1.860  -0.419  0.00  0.00    +0.000 A 
ATOM     24  C12 UNK     0       5.358  -0.645   0.244  0.00  0.00    +0.000 A 
ATOM     25  C10 UNK     0       4.538   0.319  -0.376  0.00  0.00    +0.000 A 
BRANCH  23  26
ATOM     26  O3  UNK     0       6.415  -2.843   0.158  0.00  0.00    +0.000 OA
ATOM     27  H40 UNK     0       6.842  -2.724   1.069  0.00  0.00    +0.000 HD
ENDBRANCH  23  26
BRANCH  24  28
ATOM     28  O1  UNK     0       5.934  -0.429   1.506  0.00  0.00    +0.000 OA
ATOM     29  C26 UNK     0       5.747   0.746   2.288  0.00  0.00    +0.000 C 
ENDBRANCH  24  28
ENDBRANCH  19  20
ENDBRANCH  16  18
ENDBRANCH   1  16
TORSDOF 10
