REMARK  Name = C:\Users\Maximilian\Desktop\Conformers\converted_pdb\conformers_pdb\Circumin_conf_28.pdb
REMARK  12 active torsions:
REMARK  status: ('A' for Active; 'I' for Inactive)
REMARK    1  A    between atoms: C9_1  and  C21_2
REMARK    2  A    between atoms: C9_1  and  C20_16
REMARK    3  A    between atoms: C21_2  and  C25_4
REMARK    4  A    between atoms: C17_5  and  C8_6
REMARK    5  A    between atoms: C13_8  and  O2_12
REMARK    6  A    between atoms: C19_9  and  O4_14
REMARK    7  A    between atoms: O2_12  and  C27_13
REMARK    8  A    between atoms: C20_16  and  C24_18
REMARK    9  A    between atoms: C16_19  and  C7_20
REMARK   10  A    between atoms: C18_23  and  O3_26
REMARK   11  A    between atoms: C12_24  and  O1_28
REMARK   12  A    between atoms: O1_28  and  C26_29
REMARK                            x       y       z     vdW  Elec       q    Type
REMARK                         _______ _______ _______ _____ _____    ______ ____
ROOT
ATOM      1  C9  UNK     0      -1.132   1.981   2.320  0.00  0.00    +0.000 C 
ENDROOT
BRANCH   1   2
ATOM      2  C21 UNK     0      -2.046   0.794   2.282  0.00  0.00    +0.000 C 
ATOM      3  O6  UNK     0      -3.278   0.968   2.075  0.00  0.00    +0.000 OA
BRANCH   2   4
ATOM      4  C25 UNK     0      -1.499  -0.567   2.473  0.00  0.00    +0.000 C 
ATOM      5  C17 UNK     0      -2.001  -1.676   1.907  0.00  0.00    +0.000 C 
BRANCH   5   6
ATOM      6  C8  UNK     0      -3.046  -1.689   0.861  0.00  0.00    +0.000 A 
ATOM      7  C11 UNK     0      -2.963  -0.841  -0.258  0.00  0.00    +0.000 A 
ATOM      8  C13 UNK     0      -3.958  -0.872  -1.257  0.00  0.00    +0.000 A 
ATOM      9  C19 UNK     0      -5.029  -1.778  -1.132  0.00  0.00    +0.000 A 
ATOM     10  C23 UNK     0      -5.086  -2.648  -0.037  0.00  0.00    +0.000 A 
ATOM     11  C15 UNK     0      -4.094  -2.614   0.946  0.00  0.00    +0.000 A 
BRANCH   8  12
ATOM     12  O2  UNK     0      -3.913  -0.025  -2.379  0.00  0.00    +0.000 OA
ATOM     13  C27 UNK     0      -2.902   0.952  -2.612  0.00  0.00    +0.000 C 
ENDBRANCH   8  12
BRANCH   9  14
ATOM     14  O4  UNK     0      -6.045  -1.832  -2.091  0.00  0.00    +0.000 OA
ATOM     15  H41 UNK     0      -6.036  -1.253  -2.921  0.00  0.00    +0.000 HD
ENDBRANCH   9  14
ENDBRANCH   5   6
ENDBRANCH   2   4
ENDBRANCH   1   2
BRANCH   1  16
ATOM     16  C20 UNK     0      -0.506   2.175   0.970  0.00  0.00    +0.000 C 
ATOM     17  O5  UNK     0      -1.111   2.867   0.103  0.00  0.00    +0.000 OA
BRANCH  16  18
ATOM     18  C24 UNK     0       0.774   1.511   0.645  0.00  0.00    +0.000 C 
ATOM     19  C16 UNK     0       1.337   1.606  -0.568  0.00  0.00    +0.000 C 
BRANCH  19  20
ATOM     20  C7  UNK     0       2.630   0.974  -0.934  0.00  0.00    +0.000 A 
ATOM     21  C14 UNK     0       2.928   0.800  -2.294  0.00  0.00    +0.000 A 
ATOM     22  C22 UNK     0       4.151   0.254  -2.688  0.00  0.00    +0.000 A 
ATOM     23  C18 UNK     0       5.100  -0.124  -1.732  0.00  0.00    +0.000 A 
ATOM     24  C12 UNK     0       4.826   0.041  -0.364  0.00  0.00    +0.000 A 
ATOM     25  C10 UNK     0       3.590   0.595   0.028  0.00  0.00    +0.000 A 
BRANCH  23  26
ATOM     26  O3  UNK     0       6.317  -0.657  -2.163  0.00  0.00    +0.000 OA
ATOM     27  H40 UNK     0       7.034  -0.965  -1.518  0.00  0.00    +0.000 HD
ENDBRANCH  23  26
BRANCH  24  28
ATOM     28  O1  UNK     0       5.800  -0.347   0.571  0.00  0.00    +0.000 OA
ATOM     29  C26 UNK     0       5.654  -0.244   1.984  0.00  0.00    +0.000 C 
ENDBRANCH  24  28
ENDBRANCH  19  20
ENDBRANCH  16  18
ENDBRANCH   1  16
TORSDOF 10
