REMARK  Name = C:\Users\Maximilian\Desktop\Conformers\converted_pdb\conformers_pdb\Circumin_conf_65.pdb
REMARK  12 active torsions:
REMARK  status: ('A' for Active; 'I' for Inactive)
REMARK    1  A    between atoms: C9_1  and  C21_2
REMARK    2  A    between atoms: C9_1  and  C20_16
REMARK    3  A    between atoms: C21_2  and  C25_4
REMARK    4  A    between atoms: C17_5  and  C8_6
REMARK    5  A    between atoms: C13_8  and  O2_12
REMARK    6  A    between atoms: C19_9  and  O4_14
REMARK    7  A    between atoms: O2_12  and  C27_13
REMARK    8  A    between atoms: C20_16  and  C24_18
REMARK    9  A    between atoms: C16_19  and  C7_20
REMARK   10  A    between atoms: C18_23  and  O3_26
REMARK   11  A    between atoms: C12_24  and  O1_28
REMARK   12  A    between atoms: O1_28  and  C26_29
REMARK                            x       y       z     vdW  Elec       q    Type
REMARK                         _______ _______ _______ _____ _____    ______ ____
ROOT
ATOM      1  C9  UNK     0       0.111   0.615  -2.274  0.00  0.00    +0.000 C 
ENDROOT
BRANCH   1   2
ATOM      2  C21 UNK     0       1.099   0.254  -1.207  0.00  0.00    +0.000 C 
ATOM      3  O6  UNK     0       1.436   1.128  -0.363  0.00  0.00    +0.000 OA
BRANCH   2   4
ATOM      4  C25 UNK     0       1.572  -1.143  -1.086  0.00  0.00    +0.000 C 
ATOM      5  C17 UNK     0       2.654  -1.541  -0.398  0.00  0.00    +0.000 C 
BRANCH   5   6
ATOM      6  C8  UNK     0       3.665  -0.643   0.200  0.00  0.00    +0.000 A 
ATOM      7  C11 UNK     0       4.241   0.402  -0.543  0.00  0.00    +0.000 A 
ATOM      8  C13 UNK     0       5.230   1.227   0.028  0.00  0.00    +0.000 A 
ATOM      9  C19 UNK     0       5.657   0.975   1.345  0.00  0.00    +0.000 A 
ATOM     10  C23 UNK     0       5.106  -0.087   2.069  0.00  0.00    +0.000 A 
ATOM     11  C15 UNK     0       4.124  -0.898   1.498  0.00  0.00    +0.000 A 
BRANCH   8  12
ATOM     12  O2  UNK     0       5.807   2.294  -0.679  0.00  0.00    +0.000 OA
ATOM     13  C27 UNK     0       5.457   2.663  -2.010  0.00  0.00    +0.000 C 
ENDBRANCH   8  12
BRANCH   9  14
ATOM     14  O4  UNK     0       6.632   1.768   1.951  0.00  0.00    +0.000 OA
ATOM     15  H41 UNK     0       7.063   2.552   1.474  0.00  0.00    +0.000 HD
ENDBRANCH   9  14
ENDBRANCH   5   6
ENDBRANCH   2   4
ENDBRANCH   1   2
BRANCH   1  16
ATOM     16  C20 UNK     0      -1.280   0.337  -1.793  0.00  0.00    +0.000 C 
ATOM     17  O5  UNK     0      -1.909   1.239  -1.174  0.00  0.00    +0.000 OA
BRANCH  16  18
ATOM     18  C24 UNK     0      -1.902  -0.980  -2.047  0.00  0.00    +0.000 C 
ATOM     19  C16 UNK     0      -2.874  -1.532  -1.305  0.00  0.00    +0.000 C 
BRANCH  19  20
ATOM     20  C7  UNK     0      -3.356  -1.011  -0.008  0.00  0.00    +0.000 A 
ATOM     21  C14 UNK     0      -2.459  -0.637   1.005  0.00  0.00    +0.000 A 
ATOM     22  C22 UNK     0      -2.936  -0.190   2.237  0.00  0.00    +0.000 A 
ATOM     23  C18 UNK     0      -4.311  -0.132   2.485  0.00  0.00    +0.000 A 
ATOM     24  C12 UNK     0      -5.224  -0.530   1.491  0.00  0.00    +0.000 A 
ATOM     25  C10 UNK     0      -4.735  -0.980   0.248  0.00  0.00    +0.000 A 
BRANCH  23  26
ATOM     26  O3  UNK     0      -4.752   0.320   3.729  0.00  0.00    +0.000 OA
ATOM     27  H40 UNK     0      -5.735   0.378   3.966  0.00  0.00    +0.000 HD
ENDBRANCH  23  26
BRANCH  24  28
ATOM     28  O1  UNK     0      -6.599  -0.467   1.769  0.00  0.00    +0.000 OA
ATOM     29  C26 UNK     0      -7.627  -0.830   0.853  0.00  0.00    +0.000 C 
ENDBRANCH  24  28
ENDBRANCH  19  20
ENDBRANCH  16  18
ENDBRANCH   1  16
TORSDOF 10
