REMARK  Name = C:\Users\Maximilian\Desktop\Conformers\converted_pdb\conformers_pdb\Circumin_conf_63.pdb
REMARK  12 active torsions:
REMARK  status: ('A' for Active; 'I' for Inactive)
REMARK    1  A    between atoms: C9_1  and  C21_2
REMARK    2  A    between atoms: C9_1  and  C20_16
REMARK    3  A    between atoms: C21_2  and  C25_4
REMARK    4  A    between atoms: C17_5  and  C8_6
REMARK    5  A    between atoms: C13_8  and  O2_12
REMARK    6  A    between atoms: C19_9  and  O4_14
REMARK    7  A    between atoms: O2_12  and  C27_13
REMARK    8  A    between atoms: C20_16  and  C24_18
REMARK    9  A    between atoms: C16_19  and  C7_20
REMARK   10  A    between atoms: C18_23  and  O3_26
REMARK   11  A    between atoms: C12_24  and  O1_28
REMARK   12  A    between atoms: O1_28  and  C26_29
REMARK                            x       y       z     vdW  Elec       q    Type
REMARK                         _______ _______ _______ _____ _____    ______ ____
ROOT
ATOM      1  C9  UNK     0      -0.321  -2.483  -1.529  0.00  0.00    +0.000 C 
ENDROOT
BRANCH   1   2
ATOM      2  C21 UNK     0      -0.570  -2.725  -0.059  0.00  0.00    +0.000 C 
ATOM      3  O6  UNK     0       0.124  -3.576   0.562  0.00  0.00    +0.000 OA
BRANCH   2   4
ATOM      4  C25 UNK     0      -1.634  -2.020   0.688  0.00  0.00    +0.000 C 
ATOM      5  C17 UNK     0      -2.531  -1.208   0.107  0.00  0.00    +0.000 C 
BRANCH   5   6
ATOM      6  C8  UNK     0      -3.592  -0.489   0.855  0.00  0.00    +0.000 A 
ATOM      7  C11 UNK     0      -4.158   0.662   0.281  0.00  0.00    +0.000 A 
ATOM      8  C13 UNK     0      -5.175   1.377   0.944  0.00  0.00    +0.000 A 
ATOM      9  C19 UNK     0      -5.634   0.919   2.192  0.00  0.00    +0.000 A 
ATOM     10  C23 UNK     0      -5.085  -0.234   2.758  0.00  0.00    +0.000 A 
ATOM     11  C15 UNK     0      -4.077  -0.938   2.097  0.00  0.00    +0.000 A 
BRANCH   8  12
ATOM     12  O2  UNK     0      -5.748   2.536   0.396  0.00  0.00    +0.000 OA
ATOM     13  C27 UNK     0      -5.379   3.107  -0.855  0.00  0.00    +0.000 C 
ENDBRANCH   8  12
BRANCH   9  14
ATOM     14  O4  UNK     0      -6.638   1.596   2.884  0.00  0.00    +0.000 OA
ATOM     15  H41 UNK     0      -7.072   2.437   2.521  0.00  0.00    +0.000 HD
ENDBRANCH   9  14
ENDBRANCH   5   6
ENDBRANCH   2   4
ENDBRANCH   1   2
BRANCH   1  16
ATOM     16  C20 UNK     0       0.991  -3.061  -1.996  0.00  0.00    +0.000 C 
ATOM     17  O5  UNK     0       0.974  -4.117  -2.683  0.00  0.00    +0.000 OA
BRANCH  16  18
ATOM     18  C24 UNK     0       2.302  -2.457  -1.667  0.00  0.00    +0.000 C 
ATOM     19  C16 UNK     0       2.442  -1.367  -0.897  0.00  0.00    +0.000 C 
BRANCH  19  20
ATOM     20  C7  UNK     0       3.754  -0.756  -0.570  0.00  0.00    +0.000 A 
ATOM     21  C14 UNK     0       4.957  -1.485  -0.606  0.00  0.00    +0.000 A 
ATOM     22  C22 UNK     0       6.166  -0.870  -0.276  0.00  0.00    +0.000 A 
ATOM     23  C18 UNK     0       6.195   0.477   0.104  0.00  0.00    +0.000 A 
ATOM     24  C12 UNK     0       5.006   1.216   0.162  0.00  0.00    +0.000 A 
ATOM     25  C10 UNK     0       3.788   0.591  -0.171  0.00  0.00    +0.000 A 
BRANCH  23  26
ATOM     26  O3  UNK     0       7.403   1.090   0.432  0.00  0.00    +0.000 OA
ATOM     27  H40 UNK     0       8.280   0.583   0.401  0.00  0.00    +0.000 HD
ENDBRANCH  23  26
BRANCH  24  28
ATOM     28  O1  UNK     0       5.074   2.563   0.554  0.00  0.00    +0.000 OA
ATOM     29  C26 UNK     0       3.950   3.431   0.658  0.00  0.00    +0.000 C 
ENDBRANCH  24  28
ENDBRANCH  19  20
ENDBRANCH  16  18
ENDBRANCH   1  16
TORSDOF 10
