REMARK  Name = C:\Users\Maximilian\Desktop\Conformers\converted_pdb\conformers_pdb\Circumin_conf_38.pdb
REMARK  12 active torsions:
REMARK  status: ('A' for Active; 'I' for Inactive)
REMARK    1  A    between atoms: C9_1  and  C21_2
REMARK    2  A    between atoms: C9_1  and  C20_16
REMARK    3  A    between atoms: C21_2  and  C25_4
REMARK    4  A    between atoms: C17_5  and  C8_6
REMARK    5  A    between atoms: C13_8  and  O2_12
REMARK    6  A    between atoms: C19_9  and  O4_14
REMARK    7  A    between atoms: O2_12  and  C27_13
REMARK    8  A    between atoms: C20_16  and  C24_18
REMARK    9  A    between atoms: C16_19  and  C7_20
REMARK   10  A    between atoms: C18_23  and  O3_26
REMARK   11  A    between atoms: C12_24  and  O1_28
REMARK   12  A    between atoms: O1_28  and  C26_29
REMARK                            x       y       z     vdW  Elec       q    Type
REMARK                         _______ _______ _______ _____ _____    ______ ____
ROOT
ATOM      1  C9  UNK     0      -1.194  -0.743   0.644  0.00  0.00    +0.000 C 
ENDROOT
BRANCH   1   2
ATOM      2  C21 UNK     0      -0.160   0.317   0.924  0.00  0.00    +0.000 C 
ATOM      3  O6  UNK     0      -0.550   1.453   1.306  0.00  0.00    +0.000 OA
BRANCH   2   4
ATOM      4  C25 UNK     0       1.293   0.096   0.755  0.00  0.00    +0.000 C 
ATOM      5  C17 UNK     0       1.829  -1.086   0.414  0.00  0.00    +0.000 C 
BRANCH   5   6
ATOM      6  C8  UNK     0       3.286  -1.306   0.245  0.00  0.00    +0.000 A 
ATOM      7  C11 UNK     0       4.173  -0.264  -0.093  0.00  0.00    +0.000 A 
ATOM      8  C13 UNK     0       5.550  -0.517  -0.256  0.00  0.00    +0.000 A 
ATOM      9  C19 UNK     0       6.034  -1.827  -0.088  0.00  0.00    +0.000 A 
ATOM     10  C23 UNK     0       5.151  -2.863   0.229  0.00  0.00    +0.000 A 
ATOM     11  C15 UNK     0       3.789  -2.607   0.388  0.00  0.00    +0.000 A 
BRANCH   8  12
ATOM     12  O2  UNK     0       6.459   0.501  -0.586  0.00  0.00    +0.000 OA
ATOM     13  C27 UNK     0       6.108   1.868  -0.782  0.00  0.00    +0.000 C 
ENDBRANCH   8  12
BRANCH   9  14
ATOM     14  O4  UNK     0       7.389  -2.120  -0.237  0.00  0.00    +0.000 OA
ATOM     15  H41 UNK     0       8.073  -1.409  -0.467  0.00  0.00    +0.000 HD
ENDBRANCH   9  14
ENDBRANCH   5   6
ENDBRANCH   2   4
ENDBRANCH   1   2
BRANCH   1  16
ATOM     16  C20 UNK     0      -1.273  -1.075  -0.826  0.00  0.00    +0.000 C 
ATOM     17  O5  UNK     0      -1.266  -2.285  -1.175  0.00  0.00    +0.000 OA
BRANCH  16  18
ATOM     18  C24 UNK     0      -1.272  -0.040  -1.883  0.00  0.00    +0.000 C 
ATOM     19  C16 UNK     0      -1.995   1.089  -1.869  0.00  0.00    +0.000 C 
BRANCH  19  20
ATOM     20  C7  UNK     0      -3.078   1.393  -0.913  0.00  0.00    +0.000 A 
ATOM     21  C14 UNK     0      -3.159   2.674  -0.354  0.00  0.00    +0.000 A 
ATOM     22  C22 UNK     0      -4.194   2.994   0.526  0.00  0.00    +0.000 A 
ATOM     23  C18 UNK     0      -5.173   2.047   0.842  0.00  0.00    +0.000 A 
ATOM     24  C12 UNK     0      -5.126   0.765   0.264  0.00  0.00    +0.000 A 
ATOM     25  C10 UNK     0      -4.081   0.451  -0.627  0.00  0.00    +0.000 A 
BRANCH  23  26
ATOM     26  O3  UNK     0      -6.189   2.400   1.731  0.00  0.00    +0.000 OA
ATOM     27  H40 UNK     0      -6.924   1.755   1.995  0.00  0.00    +0.000 HD
ENDBRANCH  23  26
BRANCH  24  28
ATOM     28  O1  UNK     0      -6.126  -0.164   0.594  0.00  0.00    +0.000 OA
ATOM     29  C26 UNK     0      -6.183  -1.498   0.099  0.00  0.00    +0.000 C 
ENDBRANCH  24  28
ENDBRANCH  19  20
ENDBRANCH  16  18
ENDBRANCH   1  16
TORSDOF 10
