REMARK  Name = C:\Users\Maximilian\Desktop\Conformers\converted_pdb\conformers_pdb\Circumin_conf_16.pdb
REMARK  12 active torsions:
REMARK  status: ('A' for Active; 'I' for Inactive)
REMARK    1  A    between atoms: C9_1  and  C21_2
REMARK    2  A    between atoms: C9_1  and  C20_16
REMARK    3  A    between atoms: C21_2  and  C25_4
REMARK    4  A    between atoms: C17_5  and  C8_6
REMARK    5  A    between atoms: C13_8  and  O2_12
REMARK    6  A    between atoms: C19_9  and  O4_14
REMARK    7  A    between atoms: O2_12  and  C27_13
REMARK    8  A    between atoms: C20_16  and  C24_18
REMARK    9  A    between atoms: C16_19  and  C7_20
REMARK   10  A    between atoms: C18_23  and  O3_26
REMARK   11  A    between atoms: C12_24  and  O1_28
REMARK   12  A    between atoms: O1_28  and  C26_29
REMARK                            x       y       z     vdW  Elec       q    Type
REMARK                         _______ _______ _______ _____ _____    ______ ____
ROOT
ATOM      1  C9  UNK     0       0.688   2.233   0.026  0.00  0.00    +0.000 C 
ENDROOT
BRANCH   1   2
ATOM      2  C21 UNK     0      -0.371   2.620   1.024  0.00  0.00    +0.000 C 
ATOM      3  O6  UNK     0      -0.018   3.298   2.026  0.00  0.00    +0.000 OA
BRANCH   2   4
ATOM      4  C25 UNK     0      -1.794   2.215   0.930  0.00  0.00    +0.000 C 
ATOM      5  C17 UNK     0      -2.311   1.488  -0.072  0.00  0.00    +0.000 C 
BRANCH   5   6
ATOM      6  C8  UNK     0      -3.734   1.073  -0.128  0.00  0.00    +0.000 A 
ATOM      7  C11 UNK     0      -4.075  -0.069  -0.872  0.00  0.00    +0.000 A 
ATOM      8  C13 UNK     0      -5.413  -0.502  -0.959  0.00  0.00    +0.000 A 
ATOM      9  C19 UNK     0      -6.414   0.228  -0.304  0.00  0.00    +0.000 A 
ATOM     10  C23 UNK     0      -6.084   1.378   0.424  0.00  0.00    +0.000 A 
ATOM     11  C15 UNK     0      -4.756   1.802   0.509  0.00  0.00    +0.000 A 
BRANCH   8  12
ATOM     12  O2  UNK     0      -5.783  -1.646  -1.683  0.00  0.00    +0.000 OA
ATOM     13  C27 UNK     0      -4.876  -2.473  -2.404  0.00  0.00    +0.000 C 
ENDBRANCH   8  12
BRANCH   9  14
ATOM     14  O4  UNK     0      -7.740  -0.195  -0.385  0.00  0.00    +0.000 OA
ATOM     15  H41 UNK     0      -8.488   0.311   0.075  0.00  0.00    +0.000 HD
ENDBRANCH   9  14
ENDBRANCH   5   6
ENDBRANCH   2   4
ENDBRANCH   1   2
BRANCH   1  16
ATOM     16  C20 UNK     0       1.430   1.018   0.496  0.00  0.00    +0.000 C 
ATOM     17  O5  UNK     0       2.405   1.166   1.282  0.00  0.00    +0.000 OA
BRANCH  16  18
ATOM     18  C24 UNK     0       0.960  -0.336   0.126  0.00  0.00    +0.000 C 
ATOM     19  C16 UNK     0       1.699  -1.455   0.179  0.00  0.00    +0.000 C 
BRANCH  19  20
ATOM     20  C7  UNK     0       3.154  -1.506   0.431  0.00  0.00    +0.000 A 
ATOM     21  C14 UNK     0       3.663  -2.467   1.314  0.00  0.00    +0.000 A 
ATOM     22  C22 UNK     0       5.038  -2.561   1.537  0.00  0.00    +0.000 A 
ATOM     23  C18 UNK     0       5.924  -1.713   0.866  0.00  0.00    +0.000 A 
ATOM     24  C12 UNK     0       5.434  -0.763  -0.050  0.00  0.00    +0.000 A 
ATOM     25  C10 UNK     0       4.045  -0.676  -0.271  0.00  0.00    +0.000 A 
BRANCH  23  26
ATOM     26  O3  UNK     0       7.291  -1.831   1.119  0.00  0.00    +0.000 OA
ATOM     27  H40 UNK     0       7.978  -1.243   0.662  0.00  0.00    +0.000 HD
ENDBRANCH  23  26
BRANCH  24  28
ATOM     28  O1  UNK     0       6.346   0.067  -0.720  0.00  0.00    +0.000 OA
ATOM     29  C26 UNK     0       5.984   1.062  -1.673  0.00  0.00    +0.000 C 
ENDBRANCH  24  28
ENDBRANCH  19  20
ENDBRANCH  16  18
ENDBRANCH   1  16
TORSDOF 10
