REMARK  Name = C:\Users\Maximilian\Desktop\Conformers\converted_pdb\conformers_pdb\Circumin_conf_4.pdb
REMARK  12 active torsions:
REMARK  status: ('A' for Active; 'I' for Inactive)
REMARK    1  A    between atoms: C9_1  and  C21_2
REMARK    2  A    between atoms: C9_1  and  C20_16
REMARK    3  A    between atoms: C21_2  and  C25_4
REMARK    4  A    between atoms: C17_5  and  C8_6
REMARK    5  A    between atoms: C13_8  and  O2_12
REMARK    6  A    between atoms: C19_9  and  O4_14
REMARK    7  A    between atoms: O2_12  and  C27_13
REMARK    8  A    between atoms: C20_16  and  C24_18
REMARK    9  A    between atoms: C16_19  and  C7_20
REMARK   10  A    between atoms: C18_23  and  O3_26
REMARK   11  A    between atoms: C12_24  and  O1_28
REMARK   12  A    between atoms: O1_28  and  C26_29
REMARK                            x       y       z     vdW  Elec       q    Type
REMARK                         _______ _______ _______ _____ _____    ______ ____
ROOT
ATOM      1  C9  UNK     0       0.138  -1.244  -0.349  0.00  0.00    +0.000 C 
ENDROOT
BRANCH   1   2
ATOM      2  C21 UNK     0       1.575  -1.681  -0.381  0.00  0.00    +0.000 C 
ATOM      3  O6  UNK     0       2.197  -1.823   0.707  0.00  0.00    +0.000 OA
BRANCH   2   4
ATOM      4  C25 UNK     0       2.234  -1.959  -1.678  0.00  0.00    +0.000 C 
ATOM      5  C17 UNK     0       3.560  -2.005  -1.884  0.00  0.00    +0.000 C 
BRANCH   5   6
ATOM      6  C8  UNK     0       4.592  -1.603  -0.906  0.00  0.00    +0.000 A 
ATOM      7  C11 UNK     0       4.518  -0.370  -0.236  0.00  0.00    +0.000 A 
ATOM      8  C13 UNK     0       5.527   0.019   0.667  0.00  0.00    +0.000 A 
ATOM      9  C19 UNK     0       6.631  -0.830   0.869  0.00  0.00    +0.000 A 
ATOM     10  C23 UNK     0       6.720  -2.040   0.173  0.00  0.00    +0.000 A 
ATOM     11  C15 UNK     0       5.712  -2.421  -0.716  0.00  0.00    +0.000 A 
BRANCH   8  12
ATOM     12  O2  UNK     0       5.466   1.232   1.372  0.00  0.00    +0.000 OA
ATOM     13  C27 UNK     0       4.397   2.168   1.275  0.00  0.00    +0.000 C 
ENDBRANCH   8  12
BRANCH   9  14
ATOM     14  O4  UNK     0       7.653  -0.486   1.753  0.00  0.00    +0.000 OA
ATOM     15  H41 UNK     0       7.641   0.378   2.282  0.00  0.00    +0.000 HD
ENDBRANCH   9  14
ENDBRANCH   5   6
ENDBRANCH   2   4
ENDBRANCH   1   2
BRANCH   1  16
ATOM     16  C20 UNK     0      -0.011   0.256  -0.451  0.00  0.00    +0.000 C 
ATOM     17  O5  UNK     0       0.996   0.974  -0.695  0.00  0.00    +0.000 OA
BRANCH  16  18
ATOM     18  C24 UNK     0      -1.319   0.927  -0.288  0.00  0.00    +0.000 C 
ATOM     19  C16 UNK     0      -2.474   0.262  -0.127  0.00  0.00    +0.000 C 
BRANCH  19  20
ATOM     20  C7  UNK     0      -3.790   0.931   0.025  0.00  0.00    +0.000 A 
ATOM     21  C14 UNK     0      -3.915   2.249   0.504  0.00  0.00    +0.000 A 
ATOM     22  C22 UNK     0      -5.176   2.833   0.642  0.00  0.00    +0.000 A 
ATOM     23  C18 UNK     0      -6.330   2.111   0.316  0.00  0.00    +0.000 A 
ATOM     24  C12 UNK     0      -6.227   0.793  -0.148  0.00  0.00    +0.000 A 
ATOM     25  C10 UNK     0      -4.953   0.207  -0.285  0.00  0.00    +0.000 A 
BRANCH  23  26
ATOM     26  O3  UNK     0      -7.587   2.698   0.454  0.00  0.00    +0.000 OA
ATOM     27  H40 UNK     0      -7.696   3.648   0.787  0.00  0.00    +0.000 HD
ENDBRANCH  23  26
BRANCH  24  28
ATOM     28  O1  UNK     0      -7.408   0.101  -0.459  0.00  0.00    +0.000 OA
ATOM     29  C26 UNK     0      -7.455  -1.240  -0.938  0.00  0.00    +0.000 C 
ENDBRANCH  24  28
ENDBRANCH  19  20
ENDBRANCH  16  18
ENDBRANCH   1  16
TORSDOF 10
