REMARK  Name = C:\Users\Maximilian\Desktop\Conformers\converted_pdb\conformers_pdb\Circumin_conf_37.pdb
REMARK  12 active torsions:
REMARK  status: ('A' for Active; 'I' for Inactive)
REMARK    1  A    between atoms: C9_1  and  C21_2
REMARK    2  A    between atoms: C9_1  and  C20_16
REMARK    3  A    between atoms: C21_2  and  C25_4
REMARK    4  A    between atoms: C17_5  and  C8_6
REMARK    5  A    between atoms: C13_8  and  O2_12
REMARK    6  A    between atoms: C19_9  and  O4_14
REMARK    7  A    between atoms: O2_12  and  C27_13
REMARK    8  A    between atoms: C20_16  and  C24_18
REMARK    9  A    between atoms: C16_19  and  C7_20
REMARK   10  A    between atoms: C18_23  and  O3_26
REMARK   11  A    between atoms: C12_24  and  O1_28
REMARK   12  A    between atoms: O1_28  and  C26_29
REMARK                            x       y       z     vdW  Elec       q    Type
REMARK                         _______ _______ _______ _____ _____    ______ ____
ROOT
ATOM      1  C9  UNK     0       0.208  -0.725  -0.048  0.00  0.00    +0.000 C 
ENDROOT
BRANCH   1   2
ATOM      2  C21 UNK     0       1.614  -1.245  -0.143  0.00  0.00    +0.000 C 
ATOM      3  O6  UNK     0       2.373  -1.149   0.859  0.00  0.00    +0.000 OA
BRANCH   2   4
ATOM      4  C25 UNK     0       2.052  -1.959  -1.363  0.00  0.00    +0.000 C 
ATOM      5  C17 UNK     0       3.326  -2.199  -1.711  0.00  0.00    +0.000 C 
BRANCH   5   6
ATOM      6  C8  UNK     0       4.516  -1.636  -1.038  0.00  0.00    +0.000 A 
ATOM      7  C11 UNK     0       4.614  -0.261  -0.760  0.00  0.00    +0.000 A 
ATOM      8  C13 UNK     0       5.772   0.266  -0.156  0.00  0.00    +0.000 A 
ATOM      9  C19 UNK     0       6.841  -0.591   0.143  0.00  0.00    +0.000 A 
ATOM     10  C23 UNK     0       6.756  -1.955  -0.165  0.00  0.00    +0.000 A 
ATOM     11  C15 UNK     0       5.605  -2.472  -0.762  0.00  0.00    +0.000 A 
BRANCH   8  12
ATOM     12  O2  UNK     0       5.899   1.628   0.157  0.00  0.00    +0.000 OA
ATOM     13  C27 UNK     0       4.892   2.606  -0.083  0.00  0.00    +0.000 C 
ENDBRANCH   8  12
BRANCH   9  14
ATOM     14  O4  UNK     0       7.990  -0.077   0.743  0.00  0.00    +0.000 OA
ATOM     15  H41 UNK     0       8.780  -0.669   0.971  0.00  0.00    +0.000 HD
ENDBRANCH   9  14
ENDBRANCH   5   6
ENDBRANCH   2   4
ENDBRANCH   1   2
BRANCH   1  16
ATOM     16  C20 UNK     0      -0.759  -1.762   0.474  0.00  0.00    +0.000 C 
ATOM     17  O5  UNK     0      -0.361  -2.937   0.703  0.00  0.00    +0.000 OA
BRANCH  16  18
ATOM     18  C24 UNK     0      -2.183  -1.451   0.723  0.00  0.00    +0.000 C 
ATOM     19  C16 UNK     0      -2.733  -0.254   0.465  0.00  0.00    +0.000 C 
BRANCH  19  20
ATOM     20  C7  UNK     0      -4.165   0.059   0.700  0.00  0.00    +0.000 A 
ATOM     21  C14 UNK     0      -4.947  -0.646   1.634  0.00  0.00    +0.000 A 
ATOM     22  C22 UNK     0      -6.287  -0.309   1.829  0.00  0.00    +0.000 A 
ATOM     23  C18 UNK     0      -6.868   0.738   1.109  0.00  0.00    +0.000 A 
ATOM     24  C12 UNK     0      -6.100   1.466   0.183  0.00  0.00    +0.000 A 
ATOM     25  C10 UNK     0      -4.747   1.122  -0.010  0.00  0.00    +0.000 A 
BRANCH  23  26
ATOM     26  O3  UNK     0      -8.211   1.044   1.330  0.00  0.00    +0.000 OA
ATOM     27  H40 UNK     0      -8.683   1.792   0.837  0.00  0.00    +0.000 HD
ENDBRANCH  23  26
BRANCH  24  28
ATOM     28  O1  UNK     0      -6.708   2.517  -0.522  0.00  0.00    +0.000 OA
ATOM     29  C26 UNK     0      -6.047   3.336  -1.483  0.00  0.00    +0.000 C 
ENDBRANCH  24  28
ENDBRANCH  19  20
ENDBRANCH  16  18
ENDBRANCH   1  16
TORSDOF 10
