REMARK  Name = C:\Users\Maximilian\Desktop\Conformers\converted_pdb\conformers_pdb\Circumin_conf_2.pdb
REMARK  12 active torsions:
REMARK  status: ('A' for Active; 'I' for Inactive)
REMARK    1  A    between atoms: C9_1  and  C21_2
REMARK    2  A    between atoms: C9_1  and  C20_16
REMARK    3  A    between atoms: C21_2  and  C25_4
REMARK    4  A    between atoms: C17_5  and  C8_6
REMARK    5  A    between atoms: C13_8  and  O2_12
REMARK    6  A    between atoms: C19_9  and  O4_14
REMARK    7  A    between atoms: O2_12  and  C27_13
REMARK    8  A    between atoms: C20_16  and  C24_18
REMARK    9  A    between atoms: C16_19  and  C7_20
REMARK   10  A    between atoms: C18_23  and  O3_26
REMARK   11  A    between atoms: C12_24  and  O1_28
REMARK   12  A    between atoms: O1_28  and  C26_29
REMARK                            x       y       z     vdW  Elec       q    Type
REMARK                         _______ _______ _______ _____ _____    ______ ____
ROOT
ATOM      1  C9  UNK     0       0.722   0.408   0.262  0.00  0.00    +0.000 C 
ENDROOT
BRANCH   1   2
ATOM      2  C21 UNK     0      -0.557   1.048   0.714  0.00  0.00    +0.000 C 
ATOM      3  O6  UNK     0      -1.210   1.756  -0.100  0.00  0.00    +0.000 OA
BRANCH   2   4
ATOM      4  C25 UNK     0      -1.015   0.891   2.112  0.00  0.00    +0.000 C 
ATOM      5  C17 UNK     0      -2.291   0.981   2.518  0.00  0.00    +0.000 C 
BRANCH   5   6
ATOM      6  C8  UNK     0      -3.467   1.040   1.622  0.00  0.00    +0.000 A 
ATOM      7  C11 UNK     0      -3.597   0.163   0.532  0.00  0.00    +0.000 A 
ATOM      8  C13 UNK     0      -4.737   0.206  -0.294  0.00  0.00    +0.000 A 
ATOM      9  C19 UNK     0      -5.767   1.117   0.005  0.00  0.00    +0.000 A 
ATOM     10  C23 UNK     0      -5.649   1.967   1.110  0.00  0.00    +0.000 A 
ATOM     11  C15 UNK     0      -4.512   1.923   1.919  0.00  0.00    +0.000 A 
BRANCH   8  12
ATOM     12  O2  UNK     0      -4.878  -0.638  -1.407  0.00  0.00    +0.000 OA
ATOM     13  C27 UNK     0      -3.900  -1.581  -1.833  0.00  0.00    +0.000 C 
ENDBRANCH   8  12
BRANCH   9  14
ATOM     14  O4  UNK     0      -6.919   1.187  -0.779  0.00  0.00    +0.000 OA
ATOM     15  H41 UNK     0      -7.056   0.593  -1.588  0.00  0.00    +0.000 HD
ENDBRANCH   9  14
ENDBRANCH   5   6
ENDBRANCH   2   4
ENDBRANCH   1   2
BRANCH   1  16
ATOM     16  C20 UNK     0       0.437  -0.656  -0.764  0.00  0.00    +0.000 C 
ATOM     17  O5  UNK     0      -0.337  -1.605  -0.466  0.00  0.00    +0.000 OA
BRANCH  16  18
ATOM     18  C24 UNK     0       0.963  -0.583  -2.143  0.00  0.00    +0.000 C 
ATOM     19  C16 UNK     0       2.209  -0.219  -2.485  0.00  0.00    +0.000 C 
BRANCH  19  20
ATOM     20  C7  UNK     0       3.330  -0.008  -1.544  0.00  0.00    +0.000 A 
ATOM     21  C14 UNK     0       4.211   1.058  -1.761  0.00  0.00    +0.000 A 
ATOM     22  C22 UNK     0       5.293   1.266  -0.903  0.00  0.00    +0.000 A 
ATOM     23  C18 UNK     0       5.522   0.400   0.170  0.00  0.00    +0.000 A 
ATOM     24  C12 UNK     0       4.663  -0.694   0.389  0.00  0.00    +0.000 A 
ATOM     25  C10 UNK     0       3.575  -0.898  -0.482  0.00  0.00    +0.000 A 
BRANCH  23  26
ATOM     26  O3  UNK     0       6.609   0.642   1.011  0.00  0.00    +0.000 OA
ATOM     27  H40 UNK     0       6.823   0.045   1.801  0.00  0.00    +0.000 HD
ENDBRANCH  23  26
BRANCH  24  28
ATOM     28  O1  UNK     0       4.920  -1.552   1.470  0.00  0.00    +0.000 OA
ATOM     29  C26 UNK     0       4.096  -2.654   1.839  0.00  0.00    +0.000 C 
ENDBRANCH  24  28
ENDBRANCH  19  20
ENDBRANCH  16  18
ENDBRANCH   1  16
TORSDOF 10
