REMARK  Name = C:\Users\Maximilian\Desktop\Conformers\converted_pdb\conformers_pdb\CRX_526_conf_17.pdb
REMARK  3 active torsions:
REMARK  status: ('A' for Active; 'I' for Inactive)
REMARK    1  A    between atoms: N3_2  and  C11_11
REMARK    2  A    between atoms: C9_15  and  C14_17
REMARK    3  A    between atoms: C14_17  and  O2_18
REMARK                            x       y       z     vdW  Elec       q    Type
REMARK                         _______ _______ _______ _____ _____    ______ ____
ROOT
ATOM      1 CL1  UNK     0       4.994  -3.238   1.044  0.00  0.00    +0.000 Cl
ATOM      2  N3  UNK     0       0.891  -1.017  -0.482  0.00  0.00    +0.000 N 
ATOM      3  N4  UNK     0       0.813  -2.346  -0.422  0.00  0.00    +0.000 NA
ATOM      4  N5  UNK     0       1.968  -2.879  -0.014  0.00  0.00    +0.000 NA
ATOM      5  N6  UNK     0       2.673   0.535   0.073  0.00  0.00    +0.000 NA
ATOM      6  N7  UNK     0       4.661  -0.550   0.810  0.00  0.00    +0.000 NA
ATOM      7  C16 UNK     0       2.126  -0.694  -0.080  0.00  0.00    +0.000 A 
ATOM      8  C17 UNK     0       2.788  -1.833   0.200  0.00  0.00    +0.000 A 
ATOM      9  C18 UNK     0       4.094  -1.785   0.659  0.00  0.00    +0.000 A 
ATOM     10  C19 UNK     0       3.965   0.601   0.522  0.00  0.00    +0.000 A 
ATOM     11  N8  UNK     0       4.591   1.870   0.697  0.00  0.00    +0.000 N 
ATOM     12  H31 UNK     0       4.071   2.750   0.483  0.00  0.00    +0.000 HD
ATOM     13  H32 UNK     0       5.576   1.931   1.040  0.00  0.00    +0.000 HD
ENDROOT
BRANCH   2  14
ATOM     14  C11 UNK     0      -0.216  -0.116  -0.803  0.00  0.00    +0.000 C 
ATOM     15  C13 UNK     0      -0.960  -0.616  -2.022  0.00  0.00    +0.000 C 
ATOM     16  C15 UNK     0      -2.291  -0.499  -2.156  0.00  0.00    +0.000 C 
ATOM     17  C12 UNK     0      -3.187  -0.046  -1.030  0.00  0.00    +0.000 C 
ATOM     18  C9  UNK     0      -2.427   0.771   0.034  0.00  0.00    +0.000 C 
ATOM     19  C10 UNK     0      -1.135   0.035   0.422  0.00  0.00    +0.000 C 
BRANCH  18  20
ATOM     20  C14 UNK     0      -3.303   1.016   1.276  0.00  0.00    +0.000 C 
BRANCH  20  21
ATOM     21  O2  UNK     0      -4.460   1.735   0.937  0.00  0.00    +0.000 OA
ATOM     22  H30 UNK     0      -4.176   2.673   0.783  0.00  0.00    +0.000 HD
ENDBRANCH  20  21
ENDBRANCH  18  20
ENDBRANCH   2  14
TORSDOF 3
