REMARK  Name = C:\Users\Maximilian\Desktop\Conformers\converted_pdb\conformers_pdb\CRX_526_conf_1.pdb
REMARK  3 active torsions:
REMARK  status: ('A' for Active; 'I' for Inactive)
REMARK    1  A    between atoms: N3_2  and  C11_11
REMARK    2  A    between atoms: C9_15  and  C14_17
REMARK    3  A    between atoms: C14_17  and  O2_18
REMARK                            x       y       z     vdW  Elec       q    Type
REMARK                         _______ _______ _______ _____ _____    ______ ____
ROOT
ATOM      1 CL1  UNK     0      -5.798  -1.540  -0.196  0.00  0.00    +0.000 Cl
ATOM      2  N3  UNK     0      -0.896  -1.665   0.043  0.00  0.00    +0.000 N 
ATOM      3  N4  UNK     0      -1.507  -2.681   0.648  0.00  0.00    +0.000 NA
ATOM      4  N5  UNK     0      -2.834  -2.582   0.536  0.00  0.00    +0.000 NA
ATOM      5  N6  UNK     0      -1.753   0.273  -1.148  0.00  0.00    +0.000 NA
ATOM      6  N7  UNK     0      -4.131   0.325  -1.260  0.00  0.00    +0.000 NA
ATOM      7  C16 UNK     0      -1.865  -0.889  -0.462  0.00  0.00    +0.000 A 
ATOM      8  C17 UNK     0      -3.051  -1.453  -0.164  0.00  0.00    +0.000 A 
ATOM      9  C18 UNK     0      -4.231  -0.847  -0.563  0.00  0.00    +0.000 A 
ATOM     10  C19 UNK     0      -2.909   0.885  -1.552  0.00  0.00    +0.000 A 
ATOM     11  N8  UNK     0      -2.846   2.110  -2.279  0.00  0.00    +0.000 N 
ATOM     12  H31 UNK     0      -1.923   2.543  -2.505  0.00  0.00    +0.000 HD
ATOM     13  H32 UNK     0      -3.722   2.585  -2.591  0.00  0.00    +0.000 HD
ENDROOT
BRANCH   2  14
ATOM     14  C11 UNK     0       0.553  -1.452   0.026  0.00  0.00    +0.000 C 
ATOM     15  C13 UNK     0       1.035  -1.226  -1.392  0.00  0.00    +0.000 C 
ATOM     16  C15 UNK     0       2.016  -0.359  -1.696  0.00  0.00    +0.000 C 
ATOM     17  C12 UNK     0       2.588   0.605  -0.688  0.00  0.00    +0.000 C 
ATOM     18  C9  UNK     0       2.396   0.112   0.758  0.00  0.00    +0.000 C 
ATOM     19  C10 UNK     0       0.930  -0.299   0.975  0.00  0.00    +0.000 C 
BRANCH  18  20
ATOM     20  C14 UNK     0       2.849   1.166   1.785  0.00  0.00    +0.000 C 
BRANCH  20  21
ATOM     21  O2  UNK     0       2.041   2.314   1.732  0.00  0.00    +0.000 OA
ATOM     22  H30 UNK     0       2.486   2.954   1.118  0.00  0.00    +0.000 HD
ENDBRANCH  20  21
ENDBRANCH  18  20
ENDBRANCH   2  14
TORSDOF 3
