REMARK  Name = C:\Users\Maximilian\Desktop\Conformers\converted_pdb\conformers_pdb\CRX_526_conf_23.pdb
REMARK  3 active torsions:
REMARK  status: ('A' for Active; 'I' for Inactive)
REMARK    1  A    between atoms: N3_2  and  C11_11
REMARK    2  A    between atoms: C9_15  and  C14_17
REMARK    3  A    between atoms: C14_17  and  O2_18
REMARK                            x       y       z     vdW  Elec       q    Type
REMARK                         _______ _______ _______ _____ _____    ______ ____
ROOT
ATOM      1 CL1  UNK     0      -5.780  -1.525  -0.756  0.00  0.00    +0.000 Cl
ATOM      2  N3  UNK     0      -0.876  -1.381  -0.951  0.00  0.00    +0.000 N 
ATOM      3  N4  UNK     0      -1.413  -2.547  -1.305  0.00  0.00    +0.000 NA
ATOM      4  N5  UNK     0      -2.745  -2.508  -1.232  0.00  0.00    +0.000 NA
ATOM      5  N6  UNK     0      -1.872   0.705  -0.197  0.00  0.00    +0.000 NA
ATOM      6  N7  UNK     0      -4.250   0.626  -0.107  0.00  0.00    +0.000 NA
ATOM      7  C16 UNK     0      -1.901  -0.577  -0.632  0.00  0.00    +0.000 A 
ATOM      8  C17 UNK     0      -3.044  -1.266  -0.809  0.00  0.00    +0.000 A 
ATOM      9  C18 UNK     0      -4.266  -0.669  -0.545  0.00  0.00    +0.000 A 
ATOM     10  C19 UNK     0      -3.071   1.312   0.067  0.00  0.00    +0.000 A 
ATOM     11  N8  UNK     0      -3.096   2.661   0.527  0.00  0.00    +0.000 N 
ATOM     12  H31 UNK     0      -4.004   3.133   0.732  0.00  0.00    +0.000 HD
ATOM     13  H32 UNK     0      -2.205   3.189   0.664  0.00  0.00    +0.000 HD
ENDROOT
BRANCH   2  14
ATOM     14  C11 UNK     0       0.563  -1.114  -0.883  0.00  0.00    +0.000 C 
ATOM     15  C13 UNK     0       0.919   0.136  -1.649  0.00  0.00    +0.000 C 
ATOM     16  C15 UNK     0       2.137   0.666  -1.496  0.00  0.00    +0.000 C 
ATOM     17  C12 UNK     0       3.138  -0.027  -0.612  0.00  0.00    +0.000 C 
ATOM     18  C9  UNK     0       2.502  -0.480   0.731  0.00  0.00    +0.000 C 
ATOM     19  C10 UNK     0       1.024  -0.975   0.584  0.00  0.00    +0.000 C 
BRANCH  18  20
ATOM     20  C14 UNK     0       2.609   0.640   1.783  0.00  0.00    +0.000 C 
BRANCH  20  21
ATOM     21  O2  UNK     0       2.150   0.179   3.024  0.00  0.00    +0.000 OA
ATOM     22  H30 UNK     0       2.222   0.948   3.647  0.00  0.00    +0.000 HD
ENDBRANCH  20  21
ENDBRANCH  18  20
ENDBRANCH   2  14
TORSDOF 3
