REMARK  Name = C:\Users\Maximilian\Desktop\Conformers\converted_pdb\conformers_pdb\CRX_526_conf_3.pdb
REMARK  3 active torsions:
REMARK  status: ('A' for Active; 'I' for Inactive)
REMARK    1  A    between atoms: N3_2  and  C11_11
REMARK    2  A    between atoms: C9_15  and  C14_17
REMARK    3  A    between atoms: C14_17  and  O2_18
REMARK                            x       y       z     vdW  Elec       q    Type
REMARK                         _______ _______ _______ _____ _____    ______ ____
ROOT
ATOM      1 CL1  UNK     0       5.413  -2.774  -0.441  0.00  0.00    +0.000 Cl
ATOM      2  N3  UNK     0       0.961  -0.734  -0.777  0.00  0.00    +0.000 N 
ATOM      3  N4  UNK     0       1.013  -2.015  -1.142  0.00  0.00    +0.000 NA
ATOM      4  N5  UNK     0       2.254  -2.496  -1.035  0.00  0.00    +0.000 NA
ATOM      5  N6  UNK     0       2.653   0.788   0.070  0.00  0.00    +0.000 NA
ATOM      6  N7  UNK     0       4.810  -0.209   0.228  0.00  0.00    +0.000 NA
ATOM      7  C16 UNK     0       2.202  -0.395  -0.411  0.00  0.00    +0.000 A 
ATOM      8  C17 UNK     0       2.996  -1.471  -0.575  0.00  0.00    +0.000 A 
ATOM      9  C18 UNK     0       4.342  -1.400  -0.253  0.00  0.00    +0.000 A 
ATOM     10  C19 UNK     0       3.981   0.877   0.391  0.00  0.00    +0.000 A 
ATOM     11  N8  UNK     0       4.508   2.100   0.899  0.00  0.00    +0.000 N 
ATOM     12  H31 UNK     0       3.887   2.930   1.027  0.00  0.00    +0.000 HD
ATOM     13  H32 UNK     0       5.519   2.178   1.147  0.00  0.00    +0.000 HD
ENDROOT
BRANCH   2  14
ATOM     14  C11 UNK     0      -0.254   0.079  -0.699  0.00  0.00    +0.000 C 
ATOM     15  C13 UNK     0      -1.063  -0.046  -1.965  0.00  0.00    +0.000 C 
ATOM     16  C15 UNK     0      -2.325   0.400  -1.977  0.00  0.00    +0.000 C 
ATOM     17  C12 UNK     0      -2.881   1.091  -0.760  0.00  0.00    +0.000 C 
ATOM     18  C9  UNK     0      -2.496   0.363   0.562  0.00  0.00    +0.000 C 
ATOM     19  C10 UNK     0      -1.118  -0.369   0.495  0.00  0.00    +0.000 C 
BRANCH  18  20
ATOM     20  C14 UNK     0      -3.603  -0.616   1.003  0.00  0.00    +0.000 C 
BRANCH  20  21
ATOM     21  O2  UNK     0      -4.797   0.066   1.280  0.00  0.00    +0.000 OA
ATOM     22  H30 UNK     0      -4.672   0.514   2.157  0.00  0.00    +0.000 HD
ENDBRANCH  20  21
ENDBRANCH  18  20
ENDBRANCH   2  14
TORSDOF 3
