REMARK  Name = C:\Users\Maximilian\Desktop\Conformers\converted_pdb\conformers_pdb\CRX_526_conf_11.pdb
REMARK  3 active torsions:
REMARK  status: ('A' for Active; 'I' for Inactive)
REMARK    1  A    between atoms: N3_2  and  C11_11
REMARK    2  A    between atoms: C9_15  and  C14_17
REMARK    3  A    between atoms: C14_17  and  O2_18
REMARK                            x       y       z     vdW  Elec       q    Type
REMARK                         _______ _______ _______ _____ _____    ______ ____
ROOT
ATOM      1 CL1  UNK     0      -5.736   2.033   0.278  0.00  0.00    +0.000 Cl
ATOM      2  N3  UNK     0      -1.143   0.525  -0.580  0.00  0.00    +0.000 N 
ATOM      3  N4  UNK     0      -1.427   1.737  -1.055  0.00  0.00    +0.000 NA
ATOM      4  N5  UNK     0      -2.693   2.073  -0.794  0.00  0.00    +0.000 NA
ATOM      5  N6  UNK     0      -2.461  -1.079   0.679  0.00  0.00    +0.000 NA
ATOM      6  N7  UNK     0      -4.688  -0.341   1.089  0.00  0.00    +0.000 NA
ATOM      7  C16 UNK     0      -2.257   0.084   0.016  0.00  0.00    +0.000 A 
ATOM      8  C17 UNK     0      -3.208   1.028  -0.121  0.00  0.00    +0.000 A 
ATOM      9  C18 UNK     0      -4.468   0.832   0.423  0.00  0.00    +0.000 A 
ATOM     10  C19 UNK     0      -3.702  -1.291   1.220  0.00  0.00    +0.000 A 
ATOM     11  N8  UNK     0      -3.971  -2.500   1.926  0.00  0.00    +0.000 N 
ATOM     12  H31 UNK     0      -3.228  -3.226   2.032  0.00  0.00    +0.000 HD
ATOM     13  H32 UNK     0      -4.913  -2.670   2.343  0.00  0.00    +0.000 HD
ENDROOT
BRANCH   2  14
ATOM     14  C11 UNK     0       0.171  -0.118  -0.621  0.00  0.00    +0.000 C 
ATOM     15  C13 UNK     0       0.754  -0.050  -2.010  0.00  0.00    +0.000 C 
ATOM     16  C15 UNK     0       2.050  -0.336  -2.185  0.00  0.00    +0.000 C 
ATOM     17  C12 UNK     0       2.874  -0.802  -1.015  0.00  0.00    +0.000 C 
ATOM     18  C9  UNK     0       2.594   0.027   0.274  0.00  0.00    +0.000 C 
ATOM     19  C10 UNK     0       1.133   0.573   0.362  0.00  0.00    +0.000 C 
BRANCH  18  20
ATOM     20  C14 UNK     0       3.608   1.180   0.427  0.00  0.00    +0.000 C 
BRANCH  20  21
ATOM     21  O2  UNK     0       4.913   0.685   0.571  0.00  0.00    +0.000 OA
ATOM     22  H30 UNK     0       4.985   0.337   1.498  0.00  0.00    +0.000 HD
ENDBRANCH  20  21
ENDBRANCH  18  20
ENDBRANCH   2  14
TORSDOF 3
