REMARK  Name = C:\Users\Maximilian\Desktop\Conformers\converted_pdb\conformers_pdb\CRX_526_conf_14.pdb
REMARK  3 active torsions:
REMARK  status: ('A' for Active; 'I' for Inactive)
REMARK    1  A    between atoms: N3_2  and  C11_11
REMARK    2  A    between atoms: C9_15  and  C14_17
REMARK    3  A    between atoms: C14_17  and  O2_18
REMARK                            x       y       z     vdW  Elec       q    Type
REMARK                         _______ _______ _______ _____ _____    ______ ____
ROOT
ATOM      1 CL1  UNK     0       5.829  -1.365  -0.989  0.00  0.00    +0.000 Cl
ATOM      2  N3  UNK     0       0.948  -1.567  -0.502  0.00  0.00    +0.000 N 
ATOM      3  N4  UNK     0       1.474  -2.549  -1.231  0.00  0.00    +0.000 NA
ATOM      4  N5  UNK     0       2.802  -2.432  -1.313  0.00  0.00    +0.000 NA
ATOM      5  N6  UNK     0       1.949   0.341   0.622  0.00  0.00    +0.000 NA
ATOM      6  N7  UNK     0       4.317   0.430   0.382  0.00  0.00    +0.000 NA
ATOM      7  C16 UNK     0       1.972  -0.793  -0.117  0.00  0.00    +0.000 A 
ATOM      8  C17 UNK     0       3.107  -1.325  -0.610  0.00  0.00    +0.000 A 
ATOM      9  C18 UNK     0       4.326  -0.714  -0.367  0.00  0.00    +0.000 A 
ATOM     10  C19 UNK     0       3.146   0.958   0.874  0.00  0.00    +0.000 A 
ATOM     11  N8  UNK     0       3.178   2.153   1.650  0.00  0.00    +0.000 N 
ATOM     12  H31 UNK     0       4.085   2.631   1.847  0.00  0.00    +0.000 HD
ATOM     13  H32 UNK     0       2.294   2.562   2.027  0.00  0.00    +0.000 HD
ENDROOT
BRANCH   2  14
ATOM     14  C11 UNK     0      -0.485  -1.380  -0.262  0.00  0.00    +0.000 C 
ATOM     15  C13 UNK     0      -0.753  -1.213   1.218  0.00  0.00    +0.000 C 
ATOM     16  C15 UNK     0      -1.696  -0.384   1.694  0.00  0.00    +0.000 C 
ATOM     17  C12 UNK     0      -2.439   0.593   0.817  0.00  0.00    +0.000 C 
ATOM     18  C9  UNK     0      -2.442   0.166  -0.665  0.00  0.00    +0.000 C 
ATOM     19  C10 UNK     0      -1.013  -0.200  -1.097  0.00  0.00    +0.000 C 
BRANCH  18  20
ATOM     20  C14 UNK     0      -3.010   1.280  -1.562  0.00  0.00    +0.000 C 
BRANCH  20  21
ATOM     21  O2  UNK     0      -4.334   1.580  -1.208  0.00  0.00    +0.000 OA
ATOM     22  H30 UNK     0      -4.894   0.834  -1.547  0.00  0.00    +0.000 HD
ENDBRANCH  20  21
ENDBRANCH  18  20
ENDBRANCH   2  14
TORSDOF 3
