REMARK  Name = C:\Users\Maximilian\Desktop\Conformers\converted_pdb\conformers_pdb\CRX_526_conf_25.pdb
REMARK  3 active torsions:
REMARK  status: ('A' for Active; 'I' for Inactive)
REMARK    1  A    between atoms: N3_2  and  C11_11
REMARK    2  A    between atoms: C9_15  and  C14_17
REMARK    3  A    between atoms: C14_17  and  O2_18
REMARK                            x       y       z     vdW  Elec       q    Type
REMARK                         _______ _______ _______ _____ _____    ______ ____
ROOT
ATOM      1 CL1  UNK     0      -3.417  -3.927   1.658  0.00  0.00    +0.000 Cl
ATOM      2  N3  UNK     0      -0.624   0.037   0.881  0.00  0.00    +0.000 N 
ATOM      3  N4  UNK     0      -0.222  -0.740   1.887  0.00  0.00    +0.000 NA
ATOM      4  N5  UNK     0      -1.027  -1.794   2.037  0.00  0.00    +0.000 NA
ATOM      5  N6  UNK     0      -2.501  -0.133  -0.652  0.00  0.00    +0.000 NA
ATOM      6  N7  UNK     0      -3.849  -2.059  -0.270  0.00  0.00    +0.000 NA
ATOM      7  C16 UNK     0      -1.722  -0.542   0.378  0.00  0.00    +0.000 A 
ATOM      8  C17 UNK     0      -1.968  -1.663   1.084  0.00  0.00    +0.000 A 
ATOM      9  C18 UNK     0      -3.056  -2.460   0.769  0.00  0.00    +0.000 A 
ATOM     10  C19 UNK     0      -3.581  -0.910  -0.977  0.00  0.00    +0.000 A 
ATOM     11  N8  UNK     0      -4.432  -0.526  -2.054  0.00  0.00    +0.000 N 
ATOM     12  H31 UNK     0      -5.258  -1.111  -2.309  0.00  0.00    +0.000 HD
ATOM     13  H32 UNK     0      -4.237   0.344  -2.597  0.00  0.00    +0.000 HD
ENDROOT
BRANCH   2  14
ATOM     14  C11 UNK     0       0.022   1.275   0.428  0.00  0.00    +0.000 C 
ATOM     15  C13 UNK     0       0.957   1.813   1.494  0.00  0.00    +0.000 C 
ATOM     16  C15 UNK     0       2.289   1.880   1.343  0.00  0.00    +0.000 C 
ATOM     17  C12 UNK     0       2.974   1.578   0.036  0.00  0.00    +0.000 C 
ATOM     18  C9  UNK     0       2.174   0.591  -0.833  0.00  0.00    +0.000 C 
ATOM     19  C10 UNK     0       0.712   1.069  -0.942  0.00  0.00    +0.000 C 
BRANCH  18  20
ATOM     20  C14 UNK     0       2.285  -0.861  -0.324  0.00  0.00    +0.000 C 
BRANCH  20  21
ATOM     21  O2  UNK     0       3.540  -1.398  -0.647  0.00  0.00    +0.000 OA
ATOM     22  H30 UNK     0       4.146  -1.199   0.114  0.00  0.00    +0.000 HD
ENDBRANCH  20  21
ENDBRANCH  18  20
ENDBRANCH   2  14
TORSDOF 3
