REMARK  Name = C:\Users\Maximilian\Desktop\Conformers\converted_pdb\conformers_pdb\CRX_526_conf_2.pdb
REMARK  3 active torsions:
REMARK  status: ('A' for Active; 'I' for Inactive)
REMARK    1  A    between atoms: N3_2  and  C11_11
REMARK    2  A    between atoms: C9_15  and  C14_17
REMARK    3  A    between atoms: C14_17  and  O2_18
REMARK                            x       y       z     vdW  Elec       q    Type
REMARK                         _______ _______ _______ _____ _____    ______ ____
ROOT
ATOM      1 CL1  UNK     0       4.492   3.840   0.758  0.00  0.00    +0.000 Cl
ATOM      2  N3  UNK     0       0.795   0.614   0.900  0.00  0.00    +0.000 N 
ATOM      3  N4  UNK     0       0.577   1.737   1.582  0.00  0.00    +0.000 NA
ATOM      4  N5  UNK     0       1.629   2.557   1.509  0.00  0.00    +0.000 NA
ATOM      5  N6  UNK     0       2.667  -0.130  -0.456  0.00  0.00    +0.000 NA
ATOM      6  N7  UNK     0       4.457   1.440  -0.517  0.00  0.00    +0.000 NA
ATOM      7  C16 UNK     0       2.014   0.731   0.359  0.00  0.00    +0.000 A 
ATOM      8  C17 UNK     0       2.528   1.917   0.738  0.00  0.00    +0.000 A 
ATOM      9  C18 UNK     0       3.784   2.304   0.300  0.00  0.00    +0.000 A 
ATOM     10  C19 UNK     0       3.912   0.235  -0.896  0.00  0.00    +0.000 A 
ATOM     11  N8  UNK     0       4.645  -0.637  -1.753  0.00  0.00    +0.000 N 
ATOM     12  H31 UNK     0       4.239  -1.553  -2.047  0.00  0.00    +0.000 HD
ATOM     13  H32 UNK     0       5.594  -0.367  -2.095  0.00  0.00    +0.000 HD
ENDROOT
BRANCH   2  14
ATOM     14  C11 UNK     0      -0.181  -0.457   0.694  0.00  0.00    +0.000 C 
ATOM     15  C13 UNK     0      -0.862  -0.801   2.001  0.00  0.00    +0.000 C 
ATOM     16  C15 UNK     0      -2.158  -1.149   2.075  0.00  0.00    +0.000 C 
ATOM     17  C12 UNK     0      -3.100  -1.034   0.902  0.00  0.00    +0.000 C 
ATOM     18  C9  UNK     0      -2.354  -1.040  -0.447  0.00  0.00    +0.000 C 
ATOM     19  C10 UNK     0      -1.183  -0.045  -0.398  0.00  0.00    +0.000 C 
BRANCH  18  20
ATOM     20  C14 UNK     0      -3.307  -0.747  -1.621  0.00  0.00    +0.000 C 
BRANCH  20  21
ATOM     21  O2  UNK     0      -3.895   0.522  -1.501  0.00  0.00    +0.000 OA
ATOM     22  H30 UNK     0      -3.290   1.165  -1.954  0.00  0.00    +0.000 HD
ENDBRANCH  20  21
ENDBRANCH  18  20
ENDBRANCH   2  14
TORSDOF 3
