REMARK  Name = C:\Users\Maximilian\Desktop\Conformers\converted_pdb\conformers_pdb\CRX_526_conf_19.pdb
REMARK  3 active torsions:
REMARK  status: ('A' for Active; 'I' for Inactive)
REMARK    1  A    between atoms: N3_2  and  C11_11
REMARK    2  A    between atoms: C9_15  and  C14_17
REMARK    3  A    between atoms: C14_17  and  O2_18
REMARK                            x       y       z     vdW  Elec       q    Type
REMARK                         _______ _______ _______ _____ _____    ______ ____
ROOT
ATOM      1 CL1  UNK     0       5.461  -2.165   1.242  0.00  0.00    +0.000 Cl
ATOM      2  N3  UNK     0       0.916  -0.926  -0.140  0.00  0.00    +0.000 N 
ATOM      3  N4  UNK     0       1.021  -2.141   0.399  0.00  0.00    +0.000 NA
ATOM      4  N5  UNK     0       2.284  -2.410   0.738  0.00  0.00    +0.000 NA
ATOM      5  N6  UNK     0       2.550   0.826  -0.533  0.00  0.00    +0.000 NA
ATOM      6  N7  UNK     0       4.753   0.216   0.137  0.00  0.00    +0.000 NA
ATOM      7  C16 UNK     0       2.147  -0.401  -0.127  0.00  0.00    +0.000 A 
ATOM      8  C17 UNK     0       2.986  -1.311   0.404  0.00  0.00    +0.000 A 
ATOM      9  C18 UNK     0       4.331  -1.017   0.550  0.00  0.00    +0.000 A 
ATOM     10  C19 UNK     0       3.879   1.133  -0.399  0.00  0.00    +0.000 A 
ATOM     11  N8  UNK     0       4.357   2.410  -0.815  0.00  0.00    +0.000 N 
ATOM     12  H31 UNK     0       3.701   3.113  -1.222  0.00  0.00    +0.000 HD
ATOM     13  H32 UNK     0       5.367   2.653  -0.716  0.00  0.00    +0.000 HD
ENDROOT
BRANCH   2  14
ATOM     14  C11 UNK     0      -0.333  -0.283  -0.550  0.00  0.00    +0.000 C 
ATOM     15  C13 UNK     0      -1.154  -1.210  -1.410  0.00  0.00    +0.000 C 
ATOM     16  C15 UNK     0      -2.437  -0.913  -1.646  0.00  0.00    +0.000 C 
ATOM     17  C12 UNK     0      -3.008   0.384  -1.136  0.00  0.00    +0.000 C 
ATOM     18  C9  UNK     0      -2.555   0.707   0.319  0.00  0.00    +0.000 C 
ATOM     19  C10 UNK     0      -1.160   0.110   0.687  0.00  0.00    +0.000 C 
BRANCH  18  20
ATOM     20  C14 UNK     0      -3.631   0.275   1.334  0.00  0.00    +0.000 C 
BRANCH  20  21
ATOM     21  O2  UNK     0      -3.308   0.734   2.621  0.00  0.00    +0.000 OA
ATOM     22  H30 UNK     0      -2.788   0.016   3.065  0.00  0.00    +0.000 HD
ENDBRANCH  20  21
ENDBRANCH  18  20
ENDBRANCH   2  14
TORSDOF 3
