REMARK  Name = C:\Users\Maximilian\Desktop\Conformers\converted_pdb\conformers_pdb\CRX_526_conf_13.pdb
REMARK  3 active torsions:
REMARK  status: ('A' for Active; 'I' for Inactive)
REMARK    1  A    between atoms: N3_2  and  C11_11
REMARK    2  A    between atoms: C9_15  and  C14_17
REMARK    3  A    between atoms: C14_17  and  O2_18
REMARK                            x       y       z     vdW  Elec       q    Type
REMARK                         _______ _______ _______ _____ _____    ______ ____
ROOT
ATOM      1 CL1  UNK     0       5.072   1.503   2.900  0.00  0.00    +0.000 Cl
ATOM      2  N3  UNK     0       0.816  -0.110   1.060  0.00  0.00    +0.000 N 
ATOM      3  N4  UNK     0       0.733   0.393   2.291  0.00  0.00    +0.000 NA
ATOM      4  N5  UNK     0       1.928   0.799   2.727  0.00  0.00    +0.000 NA
ATOM      5  N6  UNK     0       2.678  -0.344  -0.480  0.00  0.00    +0.000 NA
ATOM      6  N7  UNK     0       4.739   0.438   0.421  0.00  0.00    +0.000 NA
ATOM      7  C16 UNK     0       2.099  -0.005   0.696  0.00  0.00    +0.000 A 
ATOM      8  C17 UNK     0       2.782   0.545   1.719  0.00  0.00    +0.000 A 
ATOM      9  C18 UNK     0       4.142   0.783   1.601  0.00  0.00    +0.000 A 
ATOM     10  C19 UNK     0       4.023  -0.119  -0.613  0.00  0.00    +0.000 A 
ATOM     11  N8  UNK     0       4.683  -0.462  -1.829  0.00  0.00    +0.000 N 
ATOM     12  H31 UNK     0       4.147  -0.884  -2.620  0.00  0.00    +0.000 HD
ATOM     13  H32 UNK     0       5.707  -0.293  -1.940  0.00  0.00    +0.000 HD
ENDROOT
BRANCH   2  14
ATOM     14  C11 UNK     0      -0.314  -0.572   0.252  0.00  0.00    +0.000 C 
ATOM     15  C13 UNK     0      -1.197  -1.500   1.048  0.00  0.00    +0.000 C 
ATOM     16  C15 UNK     0      -2.408  -1.810   0.573  0.00  0.00    +0.000 C 
ATOM     17  C12 UNK     0      -2.832  -1.288  -0.774  0.00  0.00    +0.000 C 
ATOM     18  C9  UNK     0      -2.467   0.212  -0.961  0.00  0.00    +0.000 C 
ATOM     19  C10 UNK     0      -1.148   0.630  -0.231  0.00  0.00    +0.000 C 
BRANCH  18  20
ATOM     20  C14 UNK     0      -3.645   1.112  -0.534  0.00  0.00    +0.000 C 
BRANCH  20  21
ATOM     21  O2  UNK     0      -3.354   2.463  -0.774  0.00  0.00    +0.000 OA
ATOM     22  H30 UNK     0      -3.423   2.599  -1.755  0.00  0.00    +0.000 HD
ENDBRANCH  20  21
ENDBRANCH  18  20
ENDBRANCH   2  14
TORSDOF 3
