REMARK  Name = C:\Users\Maximilian\Desktop\Conformers\converted_pdb\conformers_pdb\CRX_526_conf_20.pdb
REMARK  3 active torsions:
REMARK  status: ('A' for Active; 'I' for Inactive)
REMARK    1  A    between atoms: N3_2  and  C11_11
REMARK    2  A    between atoms: C9_15  and  C14_17
REMARK    3  A    between atoms: C14_17  and  O2_18
REMARK                            x       y       z     vdW  Elec       q    Type
REMARK                         _______ _______ _______ _____ _____    ______ ____
ROOT
ATOM      1 CL1  UNK     0       5.566   1.985  -0.925  0.00  0.00    +0.000 Cl
ATOM      2  N3  UNK     0       1.014   0.877   0.541  0.00  0.00    +0.000 N 
ATOM      3  N4  UNK     0       1.227   2.174   0.325  0.00  0.00    +0.000 NA
ATOM      4  N5  UNK     0       2.487   2.399  -0.056  0.00  0.00    +0.000 NA
ATOM      5  N6  UNK     0       2.445  -1.070   0.295  0.00  0.00    +0.000 NA
ATOM      6  N7  UNK     0       4.652  -0.523  -0.414  0.00  0.00    +0.000 NA
ATOM      7  C16 UNK     0       2.168   0.255   0.268  0.00  0.00    +0.000 A 
ATOM      8  C17 UNK     0       3.072   1.188  -0.089  0.00  0.00    +0.000 A 
ATOM      9  C18 UNK     0       4.357   0.811  -0.444  0.00  0.00    +0.000 A 
ATOM     10  C19 UNK     0       3.712  -1.459  -0.050  0.00  0.00    +0.000 A 
ATOM     11  N8  UNK     0       4.058  -2.842  -0.034  0.00  0.00    +0.000 N 
ATOM     12  H31 UNK     0       3.351  -3.560   0.239  0.00  0.00    +0.000 HD
ATOM     13  H32 UNK     0       5.021  -3.149  -0.296  0.00  0.00    +0.000 HD
ENDROOT
BRANCH   2  14
ATOM     14  C11 UNK     0      -0.275   0.272   0.878  0.00  0.00    +0.000 C 
ATOM     15  C13 UNK     0      -0.953   1.068   1.972  0.00  0.00    +0.000 C 
ATOM     16  C15 UNK     0      -2.283   1.249   2.017  0.00  0.00    +0.000 C 
ATOM     17  C12 UNK     0      -3.196   0.855   0.884  0.00  0.00    +0.000 C 
ATOM     18  C9  UNK     0      -2.582  -0.236  -0.014  0.00  0.00    +0.000 C 
ATOM     19  C10 UNK     0      -1.142   0.157  -0.387  0.00  0.00    +0.000 C 
BRANCH  18  20
ATOM     20  C14 UNK     0      -3.447  -0.447  -1.270  0.00  0.00    +0.000 C 
BRANCH  20  21
ATOM     21  O2  UNK     0      -2.960  -1.515  -2.038  0.00  0.00    +0.000 OA
ATOM     22  H30 UNK     0      -3.213  -2.348  -1.560  0.00  0.00    +0.000 HD
ENDBRANCH  20  21
ENDBRANCH  18  20
ENDBRANCH   2  14
TORSDOF 3
