REMARK  Name = C:\Users\Maximilian\Desktop\Conformers\converted_pdb\conformers_pdb\CRX_526_conf_16.pdb
REMARK  3 active torsions:
REMARK  status: ('A' for Active; 'I' for Inactive)
REMARK    1  A    between atoms: N3_2  and  C11_11
REMARK    2  A    between atoms: C9_15  and  C14_17
REMARK    3  A    between atoms: C14_17  and  O2_18
REMARK                            x       y       z     vdW  Elec       q    Type
REMARK                         _______ _______ _______ _____ _____    ______ ____
ROOT
ATOM      1 CL1  UNK     0      -5.553  -1.785   1.404  0.00  0.00    +0.000 Cl
ATOM      2  N3  UNK     0      -0.971  -1.605  -0.351  0.00  0.00    +0.000 N 
ATOM      3  N4  UNK     0      -1.461  -2.835  -0.203  0.00  0.00    +0.000 NA
ATOM      4  N5  UNK     0      -2.709  -2.803   0.270  0.00  0.00    +0.000 NA
ATOM      5  N6  UNK     0      -1.911   0.588   0.112  0.00  0.00    +0.000 NA
ATOM      6  N7  UNK     0      -4.134   0.491   0.961  0.00  0.00    +0.000 NA
ATOM      7  C16 UNK     0      -1.934  -0.765   0.052  0.00  0.00    +0.000 A 
ATOM      8  C17 UNK     0      -3.000  -1.498   0.428  0.00  0.00    +0.000 A 
ATOM      9  C18 UNK     0      -4.144  -0.875   0.899  0.00  0.00    +0.000 A 
ATOM     10  C19 UNK     0      -3.034   1.221   0.574  0.00  0.00    +0.000 A 
ATOM     11  N8  UNK     0      -3.063   2.644   0.655  0.00  0.00    +0.000 N 
ATOM     12  H31 UNK     0      -3.914   3.136   1.006  0.00  0.00    +0.000 HD
ATOM     13  H32 UNK     0      -2.233   3.206   0.364  0.00  0.00    +0.000 HD
ENDROOT
BRANCH   2  14
ATOM     14  C11 UNK     0       0.387  -1.296  -0.802  0.00  0.00    +0.000 C 
ATOM     15  C13 UNK     0       0.350  -0.292  -1.935  0.00  0.00    +0.000 C 
ATOM     16  C15 UNK     0       1.268   0.679  -2.076  0.00  0.00    +0.000 C 
ATOM     17  C12 UNK     0       2.300   0.980  -1.019  0.00  0.00    +0.000 C 
ATOM     18  C9  UNK     0       2.576  -0.238  -0.117  0.00  0.00    +0.000 C 
ATOM     19  C10 UNK     0       1.246  -0.822   0.386  0.00  0.00    +0.000 C 
BRANCH  18  20
ATOM     20  C14 UNK     0       3.517   0.118   1.049  0.00  0.00    +0.000 C 
BRANCH  20  21
ATOM     21  O2  UNK     0       2.920   1.035   1.929  0.00  0.00    +0.000 OA
ATOM     22  H30 UNK     0       3.200   1.942   1.638  0.00  0.00    +0.000 HD
ENDBRANCH  20  21
ENDBRANCH  18  20
ENDBRANCH   2  14
TORSDOF 3
