REMARK  Name = C:\Users\Maximilian\Desktop\Conformers\converted_pdb\conformers_pdb\CRX_526_conf_15.pdb
REMARK  3 active torsions:
REMARK  status: ('A' for Active; 'I' for Inactive)
REMARK    1  A    between atoms: N3_2  and  C11_11
REMARK    2  A    between atoms: C9_15  and  C14_17
REMARK    3  A    between atoms: C14_17  and  O2_18
REMARK                            x       y       z     vdW  Elec       q    Type
REMARK                         _______ _______ _______ _____ _____    ______ ____
ROOT
ATOM      1 CL1  UNK     0       5.401  -2.619   0.058  0.00  0.00    +0.000 Cl
ATOM      2  N3  UNK     0       1.005  -0.593  -0.760  0.00  0.00    +0.000 N 
ATOM      3  N4  UNK     0       1.153  -1.819  -1.260  0.00  0.00    +0.000 NA
ATOM      4  N5  UNK     0       2.374  -2.298  -1.010  0.00  0.00    +0.000 NA
ATOM      5  N6  UNK     0       2.490   0.826   0.535  0.00  0.00    +0.000 NA
ATOM      6  N7  UNK     0       4.621  -0.163   0.926  0.00  0.00    +0.000 NA
ATOM      7  C16 UNK     0       2.161  -0.290  -0.157  0.00  0.00    +0.000 A 
ATOM      8  C17 UNK     0       3.002  -1.331  -0.316  0.00  0.00    +0.000 A 
ATOM      9  C18 UNK     0       4.274  -1.289   0.231  0.00  0.00    +0.000 A 
ATOM     10  C19 UNK     0       3.745   0.886   1.081  0.00  0.00    +0.000 A 
ATOM     11  N8  UNK     0       4.144   2.040   1.815  0.00  0.00    +0.000 N 
ATOM     12  H31 UNK     0       3.486   2.841   1.940  0.00  0.00    +0.000 HD
ATOM     13  H32 UNK     0       5.099   2.095   2.236  0.00  0.00    +0.000 HD
ENDROOT
BRANCH   2  14
ATOM     14  C11 UNK     0      -0.234   0.185  -0.772  0.00  0.00    +0.000 C 
ATOM     15  C13 UNK     0      -0.866   0.137  -2.146  0.00  0.00    +0.000 C 
ATOM     16  C15 UNK     0      -2.197   0.099  -2.329  0.00  0.00    +0.000 C 
ATOM     17  C12 UNK     0      -3.169  -0.104  -1.194  0.00  0.00    +0.000 C 
ATOM     18  C9  UNK     0      -2.575   0.302   0.169  0.00  0.00    +0.000 C 
ATOM     19  C10 UNK     0      -1.179  -0.326   0.328  0.00  0.00    +0.000 C 
BRANCH  18  20
ATOM     20  C14 UNK     0      -3.514  -0.123   1.312  0.00  0.00    +0.000 C 
BRANCH  20  21
ATOM     21  O2  UNK     0      -3.038   0.341   2.547  0.00  0.00    +0.000 OA
ATOM     22  H30 UNK     0      -3.226   1.315   2.576  0.00  0.00    +0.000 HD
ENDBRANCH  20  21
ENDBRANCH  18  20
ENDBRANCH   2  14
TORSDOF 3
