REMARK  Name = C:\Users\Maximilian\Desktop\Conformers\converted_pdb\conformers_pdb\CRX_526_conf_8.pdb
REMARK  3 active torsions:
REMARK  status: ('A' for Active; 'I' for Inactive)
REMARK    1  A    between atoms: N3_2  and  C11_11
REMARK    2  A    between atoms: C9_15  and  C14_17
REMARK    3  A    between atoms: C14_17  and  O2_18
REMARK                            x       y       z     vdW  Elec       q    Type
REMARK                         _______ _______ _______ _____ _____    ______ ____
ROOT
ATOM      1 CL1  UNK     0      -3.473   3.212  -2.728  0.00  0.00    +0.000 Cl
ATOM      2  N3  UNK     0      -0.641  -0.310  -0.806  0.00  0.00    +0.000 N 
ATOM      3  N4  UNK     0      -0.264   0.112  -2.013  0.00  0.00    +0.000 NA
ATOM      4  N5  UNK     0      -1.078   1.066  -2.470  0.00  0.00    +0.000 NA
ATOM      5  N6  UNK     0      -2.488   0.333   0.634  0.00  0.00    +0.000 NA
ATOM      6  N7  UNK     0      -3.855   2.043  -0.304  0.00  0.00    +0.000 NA
ATOM      7  C16 UNK     0      -1.732   0.398  -0.488  0.00  0.00    +0.000 A 
ATOM      8  C17 UNK     0      -1.999   1.241  -1.504  0.00  0.00    +0.000 A 
ATOM      9  C18 UNK     0      -3.086   2.097  -1.433  0.00  0.00    +0.000 A 
ATOM     10  C19 UNK     0      -3.566   1.173   0.722  0.00  0.00    +0.000 A 
ATOM     11  N8  UNK     0      -4.393   1.146   1.883  0.00  0.00    +0.000 N 
ATOM     12  H31 UNK     0      -5.217   1.783   1.959  0.00  0.00    +0.000 HD
ATOM     13  H32 UNK     0      -4.181   0.490   2.667  0.00  0.00    +0.000 HD
ENDROOT
BRANCH   2  14
ATOM     14  C11 UNK     0       0.022  -1.343  -0.002  0.00  0.00    +0.000 C 
ATOM     15  C13 UNK     0       0.938  -2.189  -0.864  0.00  0.00    +0.000 C 
ATOM     16  C15 UNK     0       2.274  -2.206  -0.729  0.00  0.00    +0.000 C 
ATOM     17  C12 UNK     0       2.982  -1.509   0.403  0.00  0.00    +0.000 C 
ATOM     18  C9  UNK     0       2.193  -0.299   0.935  0.00  0.00    +0.000 C 
ATOM     19  C10 UNK     0       0.738  -0.718   1.220  0.00  0.00    +0.000 C 
BRANCH  18  20
ATOM     20  C14 UNK     0       2.285   0.920  -0.006  0.00  0.00    +0.000 C 
BRANCH  20  21
ATOM     21  O2  UNK     0       3.543   1.532   0.107  0.00  0.00    +0.000 OA
ATOM     22  H30 UNK     0       4.136   1.104  -0.564  0.00  0.00    +0.000 HD
ENDBRANCH  20  21
ENDBRANCH  18  20
ENDBRANCH   2  14
TORSDOF 3
