REMARK  Name = C:\Users\Maximilian\Desktop\Conformers\converted_pdb\conformers_pdb\CRX_526_conf_9.pdb
REMARK  3 active torsions:
REMARK  status: ('A' for Active; 'I' for Inactive)
REMARK    1  A    between atoms: N3_2  and  C11_11
REMARK    2  A    between atoms: C9_15  and  C14_17
REMARK    3  A    between atoms: C14_17  and  O2_18
REMARK                            x       y       z     vdW  Elec       q    Type
REMARK                         _______ _______ _______ _____ _____    ______ ____
ROOT
ATOM      1 CL1  UNK     0       5.575  -0.215   2.346  0.00  0.00    +0.000 Cl
ATOM      2  N3  UNK     0       0.961  -0.728   0.749  0.00  0.00    +0.000 N 
ATOM      3  N4  UNK     0       1.117  -0.899   2.061  0.00  0.00    +0.000 NA
ATOM      4  N5  UNK     0       2.396  -0.758   2.418  0.00  0.00    +0.000 NA
ATOM      5  N6  UNK     0       2.529  -0.154  -1.014  0.00  0.00    +0.000 NA
ATOM      6  N7  UNK     0       4.765   0.090  -0.232  0.00  0.00    +0.000 NA
ATOM      7  C16 UNK     0       2.175  -0.449   0.259  0.00  0.00    +0.000 A 
ATOM      8  C17 UNK     0       3.055  -0.475   1.279  0.00  0.00    +0.000 A 
ATOM      9  C18 UNK     0       4.394  -0.201   1.051  0.00  0.00    +0.000 A 
ATOM     10  C19 UNK     0       3.850   0.116  -1.258  0.00  0.00    +0.000 A 
ATOM     11  N8  UNK     0       4.277   0.428  -2.582  0.00  0.00    +0.000 N 
ATOM     12  H31 UNK     0       3.589   0.451  -3.367  0.00  0.00    +0.000 HD
ATOM     13  H32 UNK     0       5.281   0.636  -2.777  0.00  0.00    +0.000 HD
ENDROOT
BRANCH   2  14
ATOM     14  C11 UNK     0      -0.318  -0.722   0.039  0.00  0.00    +0.000 C 
ATOM     15  C13 UNK     0      -1.164  -1.896   0.481  0.00  0.00    +0.000 C 
ATOM     16  C15 UNK     0      -2.500  -1.821   0.603  0.00  0.00    +0.000 C 
ATOM     17  C12 UNK     0      -3.254  -0.518   0.508  0.00  0.00    +0.000 C 
ATOM     18  C9  UNK     0      -2.472   0.560  -0.268  0.00  0.00    +0.000 C 
ATOM     19  C10 UNK     0      -1.028   0.625   0.256  0.00  0.00    +0.000 C 
BRANCH  18  20
ATOM     20  C14 UNK     0      -3.153   1.936  -0.147  0.00  0.00    +0.000 C 
BRANCH  20  21
ATOM     21  O2  UNK     0      -4.452   1.897  -0.673  0.00  0.00    +0.000 OA
ATOM     22  H30 UNK     0      -4.359   1.877  -1.661  0.00  0.00    +0.000 HD
ENDBRANCH  20  21
ENDBRANCH  18  20
ENDBRANCH   2  14
TORSDOF 3
