REMARK  Name = C:\Users\Maximilian\Desktop\Conformers\converted_pdb\conformers_pdb\CRX_526_conf_6.pdb
REMARK  3 active torsions:
REMARK  status: ('A' for Active; 'I' for Inactive)
REMARK    1  A    between atoms: N3_2  and  C11_11
REMARK    2  A    between atoms: C9_15  and  C14_17
REMARK    3  A    between atoms: C14_17  and  O2_18
REMARK                            x       y       z     vdW  Elec       q    Type
REMARK                         _______ _______ _______ _____ _____    ______ ____
ROOT
ATOM      1 CL1  UNK     0       5.532   1.391  -1.894  0.00  0.00    +0.000 Cl
ATOM      2  N3  UNK     0       0.797   0.115  -1.650  0.00  0.00    +0.000 N 
ATOM      3  N4  UNK     0       1.171   0.641  -2.815  0.00  0.00    +0.000 NA
ATOM      4  N5  UNK     0       2.469   0.955  -2.808  0.00  0.00    +0.000 NA
ATOM      5  N6  UNK     0       2.017  -0.315   0.408  0.00  0.00    +0.000 NA
ATOM      6  N7  UNK     0       4.313   0.306   0.280  0.00  0.00    +0.000 NA
ATOM      7  C16 UNK     0       1.890   0.105  -0.873  0.00  0.00    +0.000 A 
ATOM      8  C17 UNK     0       2.913   0.616  -1.584  0.00  0.00    +0.000 A 
ATOM      9  C18 UNK     0       4.170   0.729  -1.012  0.00  0.00    +0.000 A 
ATOM     10  C19 UNK     0       3.253  -0.211   0.989  0.00  0.00    +0.000 A 
ATOM     11  N8  UNK     0       3.442  -0.641   2.335  0.00  0.00    +0.000 N 
ATOM     12  H31 UNK     0       4.380  -0.565   2.787  0.00  0.00    +0.000 HD
ATOM     13  H32 UNK     0       2.643  -1.034   2.881  0.00  0.00    +0.000 HD
ENDROOT
BRANCH   2  14
ATOM     14  C11 UNK     0      -0.570  -0.289  -1.317  0.00  0.00    +0.000 C 
ATOM     15  C13 UNK     0      -0.583  -1.701  -0.771  0.00  0.00    +0.000 C 
ATOM     16  C15 UNK     0      -1.412  -2.090   0.212  0.00  0.00    +0.000 C 
ATOM     17  C12 UNK     0      -2.262  -1.117   0.990  0.00  0.00    +0.000 C 
ATOM     18  C9  UNK     0      -2.529   0.183   0.209  0.00  0.00    +0.000 C 
ATOM     19  C10 UNK     0      -1.202   0.727  -0.349  0.00  0.00    +0.000 C 
BRANCH  18  20
ATOM     20  C14 UNK     0      -3.223   1.219   1.112  0.00  0.00    +0.000 C 
BRANCH  20  21
ATOM     21  O2  UNK     0      -3.570   2.365   0.382  0.00  0.00    +0.000 OA
ATOM     22  H30 UNK     0      -4.358   2.122  -0.171  0.00  0.00    +0.000 HD
ENDBRANCH  20  21
ENDBRANCH  18  20
ENDBRANCH   2  14
TORSDOF 3
