REMARK  Name = C:\Users\Maximilian\Desktop\Conformers\converted_pdb\conformers_pdb\CRX_526_conf_24.pdb
REMARK  3 active torsions:
REMARK  status: ('A' for Active; 'I' for Inactive)
REMARK    1  A    between atoms: N3_2  and  C11_11
REMARK    2  A    between atoms: C9_15  and  C14_17
REMARK    3  A    between atoms: C14_17  and  O2_18
REMARK                            x       y       z     vdW  Elec       q    Type
REMARK                         _______ _______ _______ _____ _____    ______ ____
ROOT
ATOM      1 CL1  UNK     0       5.492  -2.065   1.481  0.00  0.00    +0.000 Cl
ATOM      2  N3  UNK     0       0.939  -1.063  -0.054  0.00  0.00    +0.000 N 
ATOM      3  N4  UNK     0       1.050  -2.183   0.659  0.00  0.00    +0.000 NA
ATOM      4  N5  UNK     0       2.315  -2.396   1.028  0.00  0.00    +0.000 NA
ATOM      5  N6  UNK     0       2.563   0.621  -0.703  0.00  0.00    +0.000 NA
ATOM      6  N7  UNK     0       4.770   0.126   0.044  0.00  0.00    +0.000 NA
ATOM      7  C16 UNK     0       2.167  -0.537  -0.123  0.00  0.00    +0.000 A 
ATOM      8  C17 UNK     0       3.012  -1.356   0.533  0.00  0.00    +0.000 A 
ATOM      9  C18 UNK     0       4.356  -1.036   0.632  0.00  0.00    +0.000 A 
ATOM     10  C19 UNK     0       3.890   0.951  -0.618  0.00  0.00    +0.000 A 
ATOM     11  N8  UNK     0       4.360   2.157  -1.215  0.00  0.00    +0.000 N 
ATOM     12  H31 UNK     0       5.369   2.418  -1.154  0.00  0.00    +0.000 HD
ATOM     13  H32 UNK     0       3.700   2.790  -1.718  0.00  0.00    +0.000 HD
ENDROOT
BRANCH   2  14
ATOM     14  C11 UNK     0      -0.316  -0.486  -0.537  0.00  0.00    +0.000 C 
ATOM     15  C13 UNK     0      -1.170  -1.558  -1.178  0.00  0.00    +0.000 C 
ATOM     16  C15 UNK     0      -2.510  -1.573  -1.076  0.00  0.00    +0.000 C 
ATOM     17  C12 UNK     0      -3.267  -0.647  -0.156  0.00  0.00    +0.000 C 
ATOM     18  C9  UNK     0      -2.464   0.621   0.195  0.00  0.00    +0.000 C 
ATOM     19  C10 UNK     0      -1.039   0.228   0.617  0.00  0.00    +0.000 C 
BRANCH  18  20
ATOM     20  C14 UNK     0      -3.156   1.426   1.310  0.00  0.00    +0.000 C 
BRANCH  20  21
ATOM     21  O2  UNK     0      -4.436   1.834   0.910  0.00  0.00    +0.000 OA
ATOM     22  H30 UNK     0      -4.309   2.577   0.264  0.00  0.00    +0.000 HD
ENDBRANCH  20  21
ENDBRANCH  18  20
ENDBRANCH   2  14
TORSDOF 3
