REMARK  Name = C:\Users\Maximilian\Desktop\Conformers\converted_pdb\conformers_pdb\CRX_526_conf_10.pdb
REMARK  3 active torsions:
REMARK  status: ('A' for Active; 'I' for Inactive)
REMARK    1  A    between atoms: N3_2  and  C11_11
REMARK    2  A    between atoms: C9_15  and  C14_17
REMARK    3  A    between atoms: C14_17  and  O2_18
REMARK                            x       y       z     vdW  Elec       q    Type
REMARK                         _______ _______ _______ _____ _____    ______ ____
ROOT
ATOM      1 CL1  UNK     0       5.707  -0.299   1.766  0.00  0.00    +0.000 Cl
ATOM      2  N3  UNK     0       1.111  -0.803   0.119  0.00  0.00    +0.000 N 
ATOM      3  N4  UNK     0       1.421  -1.592   1.147  0.00  0.00    +0.000 NA
ATOM      4  N5  UNK     0       2.687  -1.409   1.530  0.00  0.00    +0.000 NA
ATOM      5  N6  UNK     0       2.378   0.888  -1.075  0.00  0.00    +0.000 NA
ATOM      6  N7  UNK     0       4.608   1.125  -0.272  0.00  0.00    +0.000 NA
ATOM      7  C16 UNK     0       2.206  -0.083  -0.148  0.00  0.00    +0.000 A 
ATOM      8  C17 UNK     0       3.174  -0.458   0.711  0.00  0.00    +0.000 A 
ATOM      9  C18 UNK     0       4.419   0.149   0.666  0.00  0.00    +0.000 A 
ATOM     10  C19 UNK     0       3.604   1.497  -1.136  0.00  0.00    +0.000 A 
ATOM     11  N8  UNK     0       3.840   2.522  -2.098  0.00  0.00    +0.000 N 
ATOM     12  H31 UNK     0       4.770   2.992  -2.152  0.00  0.00    +0.000 HD
ATOM     13  H32 UNK     0       3.084   2.812  -2.757  0.00  0.00    +0.000 HD
ENDROOT
BRANCH   2  14
ATOM     14  C11 UNK     0      -0.215  -0.682  -0.487  0.00  0.00    +0.000 C 
ATOM     15  C13 UNK     0      -0.807  -2.055  -0.727  0.00  0.00    +0.000 C 
ATOM     16  C15 UNK     0      -2.118  -2.314  -0.586  0.00  0.00    +0.000 C 
ATOM     17  C12 UNK     0      -3.085  -1.324   0.015  0.00  0.00    +0.000 C 
ATOM     18  C9  UNK     0      -2.572   0.126  -0.085  0.00  0.00    +0.000 C 
ATOM     19  C10 UNK     0      -1.114   0.198   0.399  0.00  0.00    +0.000 C 
BRANCH  18  20
ATOM     20  C14 UNK     0      -3.475   1.097   0.695  0.00  0.00    +0.000 C 
BRANCH  20  21
ATOM     21  O2  UNK     0      -3.462   0.798   2.065  0.00  0.00    +0.000 OA
ATOM     22  H30 UNK     0      -4.062   1.461   2.497  0.00  0.00    +0.000 HD
ENDBRANCH  20  21
ENDBRANCH  18  20
ENDBRANCH   2  14
TORSDOF 3
