REMARK  Name = C:\Users\Maximilian\Desktop\Conformers\converted_pdb\conformers_pdb\CRX_526_conf_21.pdb
REMARK  3 active torsions:
REMARK  status: ('A' for Active; 'I' for Inactive)
REMARK    1  A    between atoms: N3_2  and  C11_11
REMARK    2  A    between atoms: C9_15  and  C14_17
REMARK    3  A    between atoms: C14_17  and  O2_18
REMARK                            x       y       z     vdW  Elec       q    Type
REMARK                         _______ _______ _______ _____ _____    ______ ____
ROOT
ATOM      1 CL1  UNK     0       4.506  -2.377   1.027  0.00  0.00    +0.000 Cl
ATOM      2  N3  UNK     0       0.135  -0.965  -0.711  0.00  0.00    +0.000 N 
ATOM      3  N4  UNK     0       0.120  -2.107  -0.023  0.00  0.00    +0.000 NA
ATOM      4  N5  UNK     0       1.340  -2.426   0.415  0.00  0.00    +0.000 NA
ATOM      5  N6  UNK     0       1.936   0.561  -1.282  0.00  0.00    +0.000 NA
ATOM      6  N7  UNK     0       4.052  -0.129  -0.434  0.00  0.00    +0.000 NA
ATOM      7  C16 UNK     0       1.408  -0.548  -0.713  0.00  0.00    +0.000 A 
ATOM      8  C17 UNK     0       2.144  -1.440  -0.022  0.00  0.00    +0.000 A 
ATOM      9  C18 UNK     0       3.507  -1.246   0.135  0.00  0.00    +0.000 A 
ATOM     10  C19 UNK     0       3.282   0.769  -1.136  0.00  0.00    +0.000 A 
ATOM     11  N8  UNK     0       3.888   1.922  -1.715  0.00  0.00    +0.000 N 
ATOM     12  H31 UNK     0       4.913   2.090  -1.609  0.00  0.00    +0.000 HD
ATOM     13  H32 UNK     0       3.312   2.610  -2.249  0.00  0.00    +0.000 HD
ENDROOT
BRANCH   2  14
ATOM     14  C11 UNK     0      -1.023  -0.307  -1.329  0.00  0.00    +0.000 C 
ATOM     15  C13 UNK     0      -2.232  -1.207  -1.350  0.00  0.00    +0.000 C 
ATOM     16  C15 UNK     0      -3.014  -1.310  -0.268  0.00  0.00    +0.000 C 
ATOM     17  C12 UNK     0      -2.622  -0.639   1.022  0.00  0.00    +0.000 C 
ATOM     18  C9  UNK     0      -2.008   0.777   0.816  0.00  0.00    +0.000 C 
ATOM     19  C10 UNK     0      -1.380   0.999  -0.594  0.00  0.00    +0.000 C 
BRANCH  18  20
ATOM     20  C14 UNK     0      -0.988   1.095   1.925  0.00  0.00    +0.000 C 
BRANCH  20  21
ATOM     21  O2  UNK     0      -1.598   0.996   3.183  0.00  0.00    +0.000 OA
ATOM     22  H30 UNK     0      -0.888   1.191   3.849  0.00  0.00    +0.000 HD
ENDBRANCH  20  21
ENDBRANCH  18  20
ENDBRANCH   2  14
TORSDOF 3
