REMARK  Name = C:\Users\Maximilian\Desktop\Conformers\converted_pdb\conformers_pdb\CRX_526_conf_4.pdb
REMARK  3 active torsions:
REMARK  status: ('A' for Active; 'I' for Inactive)
REMARK    1  A    between atoms: N3_2  and  C11_11
REMARK    2  A    between atoms: C9_15  and  C14_17
REMARK    3  A    between atoms: C14_17  and  O2_18
REMARK                            x       y       z     vdW  Elec       q    Type
REMARK                         _______ _______ _______ _____ _____    ______ ____
ROOT
ATOM      1 CL1  UNK     0       5.234  -2.233   2.089  0.00  0.00    +0.000 Cl
ATOM      2  N3  UNK     0       0.961  -1.044  -0.013  0.00  0.00    +0.000 N 
ATOM      3  N4  UNK     0       0.984  -2.250   0.554  0.00  0.00    +0.000 NA
ATOM      4  N5  UNK     0       2.179  -2.507   1.091  0.00  0.00    +0.000 NA
ATOM      5  N6  UNK     0       2.626   0.716  -0.162  0.00  0.00    +0.000 NA
ATOM      6  N7  UNK     0       4.698   0.130   0.858  0.00  0.00    +0.000 NA
ATOM      7  C16 UNK     0       2.171  -0.510   0.188  0.00  0.00    +0.000 A 
ATOM      8  C17 UNK     0       2.920  -1.408   0.857  0.00  0.00    +0.000 A 
ATOM      9  C18 UNK     0       4.223  -1.102   1.212  0.00  0.00    +0.000 A 
ATOM     10  C19 UNK     0       3.915   1.035   0.178  0.00  0.00    +0.000 A 
ATOM     11  N8  UNK     0       4.445   2.311  -0.170  0.00  0.00    +0.000 N 
ATOM     12  H31 UNK     0       5.425   2.564   0.086  0.00  0.00    +0.000 HD
ATOM     13  H32 UNK     0       3.858   3.005  -0.684  0.00  0.00    +0.000 HD
ENDROOT
BRANCH   2  14
ATOM     14  C11 UNK     0      -0.214  -0.410  -0.611  0.00  0.00    +0.000 C 
ATOM     15  C13 UNK     0      -0.930  -1.388  -1.517  0.00  0.00    +0.000 C 
ATOM     16  C15 UNK     0      -2.268  -1.419  -1.635  0.00  0.00    +0.000 C 
ATOM     17  C12 UNK     0      -3.184  -0.628  -0.734  0.00  0.00    +0.000 C 
ATOM     18  C9  UNK     0      -2.477   0.584  -0.094  0.00  0.00    +0.000 C 
ATOM     19  C10 UNK     0      -1.129   0.140   0.497  0.00  0.00    +0.000 C 
BRANCH  18  20
ATOM     20  C14 UNK     0      -3.357   1.229   0.992  0.00  0.00    +0.000 C 
BRANCH  20  21
ATOM     21  O2  UNK     0      -4.567   1.684   0.449  0.00  0.00    +0.000 OA
ATOM     22  H30 UNK     0      -4.357   2.508  -0.063  0.00  0.00    +0.000 HD
ENDBRANCH  20  21
ENDBRANCH  18  20
ENDBRANCH   2  14
TORSDOF 3
