REMARK  Name = C:\Users\Maximilian\Desktop\Conformers\converted_pdb\conformers_pdb\CRX_526_conf_5.pdb
REMARK  3 active torsions:
REMARK  status: ('A' for Active; 'I' for Inactive)
REMARK    1  A    between atoms: N3_2  and  C11_11
REMARK    2  A    between atoms: C9_15  and  C14_17
REMARK    3  A    between atoms: C14_17  and  O2_18
REMARK                            x       y       z     vdW  Elec       q    Type
REMARK                         _______ _______ _______ _____ _____    ______ ____
ROOT
ATOM      1 CL1  UNK     0       5.141  -0.412   2.980  0.00  0.00    +0.000 Cl
ATOM      2  N3  UNK     0       0.867  -0.813   0.599  0.00  0.00    +0.000 N 
ATOM      3  N4  UNK     0       0.853  -1.283   1.846  0.00  0.00    +0.000 NA
ATOM      4  N5  UNK     0       2.051  -1.152   2.423  0.00  0.00    +0.000 NA
ATOM      5  N6  UNK     0       2.602   0.260  -0.717  0.00  0.00    +0.000 NA
ATOM      6  N7  UNK     0       4.673   0.448   0.444  0.00  0.00    +0.000 NA
ATOM      7  C16 UNK     0       2.104  -0.352   0.383  0.00  0.00    +0.000 A 
ATOM      8  C17 UNK     0       2.831  -0.566   1.497  0.00  0.00    +0.000 A 
ATOM      9  C18 UNK     0       4.156  -0.163   1.552  0.00  0.00    +0.000 A 
ATOM     10  C19 UNK     0       3.911   0.661  -0.682  0.00  0.00    +0.000 A 
ATOM     11  N8  UNK     0       4.486   1.306  -1.816  0.00  0.00    +0.000 N 
ATOM     12  H31 UNK     0       5.482   1.617  -1.798  0.00  0.00    +0.000 HD
ATOM     13  H32 UNK     0       3.915   1.473  -2.674  0.00  0.00    +0.000 HD
ENDROOT
BRANCH   2  14
ATOM     14  C11 UNK     0      -0.296  -0.717  -0.284  0.00  0.00    +0.000 C 
ATOM     15  C13 UNK     0      -1.083  -2.009  -0.254  0.00  0.00    +0.000 C 
ATOM     16  C15 UNK     0      -2.425  -2.044  -0.328  0.00  0.00    +0.000 C 
ATOM     17  C12 UNK     0      -3.277  -0.803  -0.244  0.00  0.00    +0.000 C 
ATOM     18  C9  UNK     0      -2.496   0.468  -0.631  0.00  0.00    +0.000 C 
ATOM     19  C10 UNK     0      -1.151   0.499   0.114  0.00  0.00    +0.000 C 
BRANCH  18  20
ATOM     20  C14 UNK     0      -3.323   1.741  -0.373  0.00  0.00    +0.000 C 
BRANCH  20  21
ATOM     21  O2  UNK     0      -3.648   1.877   0.986  0.00  0.00    +0.000 OA
ATOM     22  H30 UNK     0      -2.908   2.384   1.411  0.00  0.00    +0.000 HD
ENDBRANCH  20  21
ENDBRANCH  18  20
ENDBRANCH   2  14
TORSDOF 3
