REMARK  Name = C:\Users\Maximilian\Desktop\Conformers\converted_pdb\conformers_pdb\Docetaxel_conf_78.pdb
REMARK  25 active torsions:
REMARK  status: ('A' for Active; 'I' for Inactive)
REMARK    1  A    between atoms: C17_4  and  O2_58
REMARK    2  A    between atoms: C18_5  and  C29_16
REMARK    3  A    between atoms: C20_7  and  O3_47
REMARK    4  A    between atoms: C21_8  and  O4_45
REMARK    5  A    between atoms: C22_9  and  O5_62
REMARK    6  A    between atoms: C24_11  and  C33_20
REMARK    7  A    between atoms: C24_11  and  C34_21
REMARK    8  A    between atoms: C30_17  and  O7_56
REMARK    9  A    between atoms: C31_18  and  O8_23
REMARK   10  A    between atoms: C32_19  and  C35_22
REMARK   11  A    between atoms: O8_23  and  C39_24
REMARK   12  A    between atoms: C39_24  and  C41_26
REMARK   13  A    between atoms: C41_26  and  O12_27
REMARK   14  A    between atoms: C41_26  and  C44_29
REMARK   15  A    between atoms: C44_29  and  C48_30
REMARK   16  A    between atoms: C44_29  and  N15_36
REMARK   17  A    between atoms: C51_37  and  O13_40
REMARK   18  A    between atoms: O13_40  and  C55_41
REMARK   19  A    between atoms: C55_41  and  C56_42
REMARK   20  A    between atoms: C55_41  and  C57_43
REMARK   21  A    between atoms: C55_41  and  C58_44
REMARK   22  A    between atoms: O3_47  and  C37_48
REMARK   23  A    between atoms: C37_48  and  C40_50
REMARK   24  A    between atoms: O2_58  and  C36_59
REMARK   25  A    between atoms: C36_59  and  C38_60
REMARK                            x       y       z     vdW  Elec       q    Type
REMARK                         _______ _______ _______ _____ _____    ______ ____
ROOT
ATOM      1  O1  UNK     0      -5.925   0.148  -2.313  0.00  0.00    +0.000 OA
ATOM      2  O6  UNK     0      -4.439  -3.580   2.211  0.00  0.00    +0.000 OA
ATOM      3  C16 UNK     0      -3.560  -0.786  -0.062  0.00  0.00    +0.000 C 
ATOM      4  C17 UNK     0      -3.985  -0.172  -1.479  0.00  0.00    +0.000 C 
ATOM      5  C18 UNK     0      -4.460  -2.026   0.394  0.00  0.00    +0.000 C 
ATOM      6  C19 UNK     0      -5.007  -0.917  -2.360  0.00  0.00    +0.000 C 
ATOM      7  C20 UNK     0      -3.259   0.316   1.084  0.00  0.00    +0.000 C 
ATOM      8  C21 UNK     0      -1.883   0.257   1.909  0.00  0.00    +0.000 C 
ATOM      9  C22 UNK     0      -4.757  -2.923  -0.852  0.00  0.00    +0.000 C 
ATOM     10  C23 UNK     0      -5.644  -2.208  -1.862  0.00  0.00    +0.000 C 
ATOM     11  C24 UNK     0      -1.634  -1.101   2.678  0.00  0.00    +0.000 C 
ATOM     12  C25 UNK     0      -5.058   0.920  -1.520  0.00  0.00    +0.000 C 
ATOM     13  C26 UNK     0      -3.757  -2.976   1.393  0.00  0.00    +0.000 C 
ATOM     14  C27 UNK     0      -0.667   0.578   0.944  0.00  0.00    +0.000 C 
ATOM     15  C28 UNK     0      -1.349  -2.156   1.568  0.00  0.00    +0.000 C 
ATOM     16  C29 UNK     0      -5.808  -1.544   1.025  0.00  0.00    +0.000 C 
ATOM     17  C30 UNK     0      -2.284  -3.339   1.303  0.00  0.00    +0.000 C 
ATOM     18  C31 UNK     0       0.393  -0.547   0.789  0.00  0.00    +0.000 C 
ATOM     19  C32 UNK     0      -0.306  -1.901   0.705  0.00  0.00    +0.000 C 
ATOM     20  C33 UNK     0      -0.389  -1.025   3.650  0.00  0.00    +0.000 C 
ATOM     21  C34 UNK     0      -2.810  -1.400   3.655  0.00  0.00    +0.000 C 
ATOM     22  C35 UNK     0       0.085  -2.858  -0.408  0.00  0.00    +0.000 C 
ENDROOT
BRANCH   8  23
ATOM     23  O4  UNK     0      -1.948   1.261   2.904  0.00  0.00    +0.000 OA
ATOM     24  H80 UNK     0      -1.872   2.155   2.483  0.00  0.00    +0.000 HD
ENDBRANCH   8  23
BRANCH  17  25
ATOM     25  O7  UNK     0      -1.949  -4.439   2.118  0.00  0.00    +0.000 OA
ATOM     26  H85 UNK     0      -1.975  -4.139   3.057  0.00  0.00    +0.000 HD
ENDBRANCH  17  25
BRANCH   9  27
ATOM     27  O5  UNK     0      -5.384  -4.123  -0.470  0.00  0.00    +0.000 OA
ATOM     28  H81 UNK     0      -5.215  -4.789  -1.197  0.00  0.00    +0.000 HD
ENDBRANCH   9  27
BRANCH  18  29
ATOM     29  O8  UNK     0       1.239  -0.261  -0.336  0.00  0.00    +0.000 OA
BRANCH  29  30
ATOM     30  C39 UNK     0       2.260   0.702  -0.267  0.00  0.00    +0.000 C 
ATOM     31  O11 UNK     0       2.467   1.330   0.812  0.00  0.00    +0.000 OA
BRANCH  30  32
ATOM     32  C41 UNK     0       3.155   0.964  -1.450  0.00  0.00    +0.000 C 
BRANCH  32  33
ATOM     33  O12 UNK     0       2.420   0.834  -2.640  0.00  0.00    +0.000 OA
ATOM     34  H95 UNK     0       1.930   1.690  -2.769  0.00  0.00    +0.000 HD
ENDBRANCH  32  33
BRANCH  32  35
ATOM     35  C44 UNK     0       4.394   0.037  -1.500  0.00  0.00    +0.000 C 
BRANCH  35  36
ATOM     36  C48 UNK     0       4.039  -1.441  -1.573  0.00  0.00    +0.000 A 
ATOM     37  C50 UNK     0       3.785  -2.021  -2.831  0.00  0.00    +0.000 A 
ATOM     38  C53 UNK     0       3.428  -3.368  -2.935  0.00  0.00    +0.000 A 
ATOM     39  C54 UNK     0       3.334  -4.154  -1.786  0.00  0.00    +0.000 A 
ATOM     40  C52 UNK     0       3.562  -3.589  -0.533  0.00  0.00    +0.000 A 
ATOM     41  C49 UNK     0       3.915  -2.239  -0.419  0.00  0.00    +0.000 A 
ENDBRANCH  35  36
BRANCH  35  42
ATOM     42  N15 UNK     0       5.295   0.325  -0.369  0.00  0.00    +0.000 N 
ATOM     43  C51 UNK     0       6.683   0.651  -0.535  0.00  0.00    +0.000 C 
ATOM     44  O14 UNK     0       7.197   0.684  -1.683  0.00  0.00    +0.000 OA
ATOM     45  H97 UNK     0       4.924   0.300   0.606  0.00  0.00    +0.000 HD
BRANCH  43  46
ATOM     46  O13 UNK     0       7.467   0.894   0.610  0.00  0.00    +0.000 OA
BRANCH  46  47
ATOM     47  C55 UNK     0       8.832   1.346   0.625  0.00  0.00    +0.000 C 
ATOM     48  C56 UNK     0       9.242   1.565   2.093  0.00  0.00    +0.000 C 
ATOM     49  C57 UNK     0       9.767   0.292  -0.005  0.00  0.00    +0.000 C 
ATOM     50  C58 UNK     0       8.960   2.687  -0.126  0.00  0.00    +0.000 C 
ENDBRANCH  46  47
ENDBRANCH  43  46
ENDBRANCH  35  42
ENDBRANCH  32  35
ENDBRANCH  30  32
ENDBRANCH  29  30
ENDBRANCH  18  29
BRANCH   7  51
ATOM     51  O3  UNK     0      -3.392   1.649   0.564  0.00  0.00    +0.000 OA
BRANCH  51  52
ATOM     52  C37 UNK     0      -4.151   2.670   1.176  0.00  0.00    +0.000 C 
ATOM     53  O10 UNK     0      -4.901   2.412   2.162  0.00  0.00    +0.000 OA
BRANCH  52  54
ATOM     54  C40 UNK     0      -4.101   4.048   0.655  0.00  0.00    +0.000 A 
ATOM     55  C42 UNK     0      -2.947   4.534   0.024  0.00  0.00    +0.000 A 
ATOM     56  C45 UNK     0      -2.923   5.830  -0.506  0.00  0.00    +0.000 A 
ATOM     57  C47 UNK     0      -4.026   6.665  -0.357  0.00  0.00    +0.000 A 
ATOM     58  C46 UNK     0      -5.156   6.213   0.330  0.00  0.00    +0.000 A 
ATOM     59  C43 UNK     0      -5.199   4.905   0.822  0.00  0.00    +0.000 A 
ENDBRANCH  52  54
ENDBRANCH  51  52
ENDBRANCH   7  51
BRANCH   4  60
ATOM     60  O2  UNK     0      -2.855   0.047  -2.333  0.00  0.00    +0.000 OA
BRANCH  60  61
ATOM     61  C36 UNK     0      -2.087   1.200  -2.480  0.00  0.00    +0.000 C 
ATOM     62  C38 UNK     0      -0.934   1.167  -3.412  0.00  0.00    +0.000 C 
ATOM     63  O9  UNK     0      -2.321   2.235  -1.814  0.00  0.00    +0.000 OA
ENDBRANCH  60  61
ENDBRANCH   4  60
TORSDOF 17
