REMARK  Name = C:\Users\Maximilian\Desktop\Conformers\converted_pdb\conformers_pdb\Docetaxel_conf_21.pdb
REMARK  25 active torsions:
REMARK  status: ('A' for Active; 'I' for Inactive)
REMARK    1  A    between atoms: C17_4  and  O2_58
REMARK    2  A    between atoms: C18_5  and  C29_16
REMARK    3  A    between atoms: C20_7  and  O3_47
REMARK    4  A    between atoms: C21_8  and  O4_45
REMARK    5  A    between atoms: C22_9  and  O5_62
REMARK    6  A    between atoms: C24_11  and  C33_20
REMARK    7  A    between atoms: C24_11  and  C34_21
REMARK    8  A    between atoms: C30_17  and  O7_56
REMARK    9  A    between atoms: C31_18  and  O8_23
REMARK   10  A    between atoms: C32_19  and  C35_22
REMARK   11  A    between atoms: O8_23  and  C39_24
REMARK   12  A    between atoms: C39_24  and  C41_26
REMARK   13  A    between atoms: C41_26  and  O12_27
REMARK   14  A    between atoms: C41_26  and  C44_29
REMARK   15  A    between atoms: C44_29  and  C48_30
REMARK   16  A    between atoms: C44_29  and  N15_36
REMARK   17  A    between atoms: C51_37  and  O13_40
REMARK   18  A    between atoms: O13_40  and  C55_41
REMARK   19  A    between atoms: C55_41  and  C56_42
REMARK   20  A    between atoms: C55_41  and  C57_43
REMARK   21  A    between atoms: C55_41  and  C58_44
REMARK   22  A    between atoms: O3_47  and  C37_48
REMARK   23  A    between atoms: C37_48  and  C40_50
REMARK   24  A    between atoms: O2_58  and  C36_59
REMARK   25  A    between atoms: C36_59  and  C38_60
REMARK                            x       y       z     vdW  Elec       q    Type
REMARK                         _______ _______ _______ _____ _____    ______ ____
ROOT
ATOM      1  O1  UNK     0      -3.481   3.155   0.426  0.00  0.00    +0.000 OA
ATOM      2  O6  UNK     0      -1.921   1.393  -4.965  0.00  0.00    +0.000 OA
ATOM      3  C16 UNK     0      -2.430   0.537  -1.371  0.00  0.00    +0.000 C 
ATOM      4  C17 UNK     0      -2.720   1.216   0.028  0.00  0.00    +0.000 C 
ATOM      5  C18 UNK     0      -2.639   1.447  -2.686  0.00  0.00    +0.000 C 
ATOM      6  C19 UNK     0      -2.196   2.642   0.157  0.00  0.00    +0.000 C 
ATOM      7  C20 UNK     0      -2.913  -0.983  -1.491  0.00  0.00    +0.000 C 
ATOM      8  C21 UNK     0      -1.799  -2.111  -1.706  0.00  0.00    +0.000 C 
ATOM      9  C22 UNK     0      -2.453   2.985  -2.364  0.00  0.00    +0.000 C 
ATOM     10  C23 UNK     0      -1.592   3.239  -1.118  0.00  0.00    +0.000 C 
ATOM     11  C24 UNK     0      -0.942  -1.926  -3.023  0.00  0.00    +0.000 C 
ATOM     12  C25 UNK     0      -4.063   1.875   0.284  0.00  0.00    +0.000 C 
ATOM     13  C26 UNK     0      -1.616   1.102  -3.812  0.00  0.00    +0.000 C 
ATOM     14  C27 UNK     0      -0.854  -2.218  -0.446  0.00  0.00    +0.000 C 
ATOM     15  C28 UNK     0      -0.031  -0.693  -2.805  0.00  0.00    +0.000 C 
ATOM     16  C29 UNK     0      -4.064   1.249  -3.310  0.00  0.00    +0.000 C 
ATOM     17  C30 UNK     0      -0.182   0.624  -3.589  0.00  0.00    +0.000 C 
ATOM     18  C31 UNK     0       0.617  -1.749  -0.617  0.00  0.00    +0.000 C 
ATOM     19  C32 UNK     0       0.798  -0.712  -1.713  0.00  0.00    +0.000 C 
ATOM     20  C33 UNK     0      -0.031  -3.181  -3.283  0.00  0.00    +0.000 C 
ATOM     21  C34 UNK     0      -1.849  -1.876  -4.290  0.00  0.00    +0.000 C 
ATOM     22  C35 UNK     0       1.920   0.295  -1.537  0.00  0.00    +0.000 C 
ENDROOT
BRANCH   8  23
ATOM     23  O4  UNK     0      -2.479  -3.343  -1.845  0.00  0.00    +0.000 OA
ATOM     24  H80 UNK     0      -2.916  -3.569  -0.985  0.00  0.00    +0.000 HD
ENDBRANCH   8  23
BRANCH  17  25
ATOM     25  O7  UNK     0       0.564   0.585  -4.785  0.00  0.00    +0.000 OA
ATOM     26  H85 UNK     0       0.180  -0.127  -5.363  0.00  0.00    +0.000 HD
ENDBRANCH  17  25
BRANCH   9  27
ATOM     27  O5  UNK     0      -3.685   3.645  -2.185  0.00  0.00    +0.000 OA
ATOM     28  H81 UNK     0      -3.912   4.111  -3.032  0.00  0.00    +0.000 HD
ENDBRANCH   9  27
BRANCH  18  29
ATOM     29  O8  UNK     0       1.069  -1.226   0.641  0.00  0.00    +0.000 OA
BRANCH  29  30
ATOM     30  C39 UNK     0       1.944  -1.914   1.506  0.00  0.00    +0.000 C 
ATOM     31  O11 UNK     0       2.413  -3.046   1.178  0.00  0.00    +0.000 OA
BRANCH  30  32
ATOM     32  C41 UNK     0       2.401  -1.282   2.802  0.00  0.00    +0.000 C 
BRANCH  32  33
ATOM     33  O12 UNK     0       1.483  -0.316   3.268  0.00  0.00    +0.000 OA
ATOM     34  H95 UNK     0       1.332   0.344   2.540  0.00  0.00    +0.000 HD
ENDBRANCH  32  33
BRANCH  32  35
ATOM     35  C44 UNK     0       3.837  -0.716   2.666  0.00  0.00    +0.000 C 
BRANCH  35  36
ATOM     36  C48 UNK     0       4.350  -0.159   3.981  0.00  0.00    +0.000 A 
ATOM     37  C50 UNK     0       3.947   1.112   4.446  0.00  0.00    +0.000 A 
ATOM     38  C53 UNK     0       4.448   1.614   5.652  0.00  0.00    +0.000 A 
ATOM     39  C54 UNK     0       5.334   0.848   6.418  0.00  0.00    +0.000 A 
ATOM     40  C52 UNK     0       5.727  -0.419   5.977  0.00  0.00    +0.000 A 
ATOM     41  C49 UNK     0       5.231  -0.924   4.771  0.00  0.00    +0.000 A 
ENDBRANCH  35  36
BRANCH  35  42
ATOM     42  N15 UNK     0       3.919   0.301   1.607  0.00  0.00    +0.000 N 
ATOM     43  C51 UNK     0       4.967   0.321   0.628  0.00  0.00    +0.000 C 
ATOM     44  O14 UNK     0       5.877  -0.554   0.648  0.00  0.00    +0.000 OA
ATOM     45  H97 UNK     0       3.240   1.097   1.599  0.00  0.00    +0.000 HD
BRANCH  43  46
ATOM     46  O13 UNK     0       4.946   1.317  -0.358  0.00  0.00    +0.000 OA
BRANCH  46  47
ATOM     47  C55 UNK     0       5.857   1.449  -1.455  0.00  0.00    +0.000 C 
ATOM     48  C56 UNK     0       5.792   0.198  -2.358  0.00  0.00    +0.000 C 
ATOM     49  C57 UNK     0       5.408   2.673  -2.271  0.00  0.00    +0.000 C 
ATOM     50  C58 UNK     0       7.292   1.685  -0.948  0.00  0.00    +0.000 C 
ENDBRANCH  46  47
ENDBRANCH  43  46
ENDBRANCH  35  42
ENDBRANCH  32  35
ENDBRANCH  30  32
ENDBRANCH  29  30
ENDBRANCH  18  29
BRANCH   7  51
ATOM     51  O3  UNK     0      -3.687  -1.342  -0.342  0.00  0.00    +0.000 OA
BRANCH  51  52
ATOM     52  C37 UNK     0      -5.067  -1.136  -0.204  0.00  0.00    +0.000 C 
ATOM     53  O10 UNK     0      -5.749  -0.704  -1.170  0.00  0.00    +0.000 OA
BRANCH  52  54
ATOM     54  C40 UNK     0      -5.724  -1.427   1.089  0.00  0.00    +0.000 A 
ATOM     55  C42 UNK     0      -4.966  -1.906   2.172  0.00  0.00    +0.000 A 
ATOM     56  C45 UNK     0      -5.581  -2.163   3.400  0.00  0.00    +0.000 A 
ATOM     57  C47 UNK     0      -6.954  -1.964   3.559  0.00  0.00    +0.000 A 
ATOM     58  C46 UNK     0      -7.718  -1.499   2.488  0.00  0.00    +0.000 A 
ATOM     59  C43 UNK     0      -7.110  -1.229   1.257  0.00  0.00    +0.000 A 
ENDBRANCH  52  54
ENDBRANCH  51  52
ENDBRANCH   7  51
BRANCH   4  60
ATOM     60  O2  UNK     0      -2.279   0.376   1.117  0.00  0.00    +0.000 OA
BRANCH  60  61
ATOM     61  C36 UNK     0      -2.302   0.652   2.494  0.00  0.00    +0.000 C 
ATOM     62  C38 UNK     0      -1.811  -0.379   3.454  0.00  0.00    +0.000 C 
ATOM     63  O9  UNK     0      -2.744   1.747   2.936  0.00  0.00    +0.000 OA
ENDBRANCH  60  61
ENDBRANCH   4  60
TORSDOF 17
