REMARK  Name = C:\Users\Maximilian\Desktop\Conformers\converted_pdb\conformers_pdb\Docetaxel_conf_13.pdb
REMARK  25 active torsions:
REMARK  status: ('A' for Active; 'I' for Inactive)
REMARK    1  A    between atoms: C17_4  and  O2_58
REMARK    2  A    between atoms: C18_5  and  C29_16
REMARK    3  A    between atoms: C20_7  and  O3_47
REMARK    4  A    between atoms: C21_8  and  O4_45
REMARK    5  A    between atoms: C22_9  and  O5_62
REMARK    6  A    between atoms: C24_11  and  C33_20
REMARK    7  A    between atoms: C24_11  and  C34_21
REMARK    8  A    between atoms: C30_17  and  O7_56
REMARK    9  A    between atoms: C31_18  and  O8_23
REMARK   10  A    between atoms: C32_19  and  C35_22
REMARK   11  A    between atoms: O8_23  and  C39_24
REMARK   12  A    between atoms: C39_24  and  C41_26
REMARK   13  A    between atoms: C41_26  and  O12_27
REMARK   14  A    between atoms: C41_26  and  C44_29
REMARK   15  A    between atoms: C44_29  and  C48_30
REMARK   16  A    between atoms: C44_29  and  N15_36
REMARK   17  A    between atoms: C51_37  and  O13_40
REMARK   18  A    between atoms: O13_40  and  C55_41
REMARK   19  A    between atoms: C55_41  and  C56_42
REMARK   20  A    between atoms: C55_41  and  C57_43
REMARK   21  A    between atoms: C55_41  and  C58_44
REMARK   22  A    between atoms: O3_47  and  C37_48
REMARK   23  A    between atoms: C37_48  and  C40_50
REMARK   24  A    between atoms: O2_58  and  C36_59
REMARK   25  A    between atoms: C36_59  and  C38_60
REMARK                            x       y       z     vdW  Elec       q    Type
REMARK                         _______ _______ _______ _____ _____    ______ ____
ROOT
ATOM      1  O1  UNK     0      -4.835  -3.034   0.619  0.00  0.00    +0.000 OA
ATOM      2  O6  UNK     0      -0.788  -0.481   4.308  0.00  0.00    +0.000 OA
ATOM      3  C16 UNK     0      -2.698  -0.353   1.299  0.00  0.00    +0.000 C 
ATOM      4  C17 UNK     0      -3.186  -1.662   0.495  0.00  0.00    +0.000 C 
ATOM      5  C18 UNK     0      -2.769  -0.461   2.925  0.00  0.00    +0.000 C 
ATOM      6  C19 UNK     0      -3.590  -2.932   1.260  0.00  0.00    +0.000 C 
ATOM      7  C20 UNK     0      -3.234   1.027   0.647  0.00  0.00    +0.000 C 
ATOM      8  C21 UNK     0      -2.200   2.145   0.146  0.00  0.00    +0.000 C 
ATOM      9  C22 UNK     0      -2.716  -1.977   3.365  0.00  0.00    +0.000 C 
ATOM     10  C23 UNK     0      -3.823  -2.803   2.751  0.00  0.00    +0.000 C 
ATOM     11  C24 UNK     0      -1.662   3.038   1.318  0.00  0.00    +0.000 C 
ATOM     12  C25 UNK     0      -4.640  -1.795   0.000  0.00  0.00    +0.000 C 
ATOM     13  C26 UNK     0      -1.545   0.218   3.643  0.00  0.00    +0.000 C 
ATOM     14  C27 UNK     0      -1.006   1.523  -0.660  0.00  0.00    +0.000 C 
ATOM     15  C28 UNK     0      -0.800   2.120   2.199  0.00  0.00    +0.000 C 
ATOM     16  C29 UNK     0      -4.097   0.137   3.483  0.00  0.00    +0.000 C 
ATOM     17  C30 UNK     0      -1.167   1.693   3.620  0.00  0.00    +0.000 C 
ATOM     18  C31 UNK     0       0.338   1.318   0.090  0.00  0.00    +0.000 C 
ATOM     19  C32 UNK     0       0.255   1.480   1.598  0.00  0.00    +0.000 C 
ATOM     20  C33 UNK     0      -0.764   4.202   0.784  0.00  0.00    +0.000 C 
ATOM     21  C34 UNK     0      -2.814   3.817   2.037  0.00  0.00    +0.000 C 
ATOM     22  C35 UNK     0       1.418   0.927   2.398  0.00  0.00    +0.000 C 
ENDROOT
BRANCH   8  23
ATOM     23  O4  UNK     0      -2.898   3.020  -0.721  0.00  0.00    +0.000 OA
ATOM     24  H80 UNK     0      -3.030   2.582  -1.604  0.00  0.00    +0.000 HD
ENDBRANCH   8  23
BRANCH  17  25
ATOM     25  O7  UNK     0      -2.147   2.470   4.241  0.00  0.00    +0.000 OA
ATOM     26  H85 UNK     0      -2.183   2.196   5.195  0.00  0.00    +0.000 HD
ENDBRANCH  17  25
BRANCH   9  27
ATOM     27  O5  UNK     0      -2.801  -2.098   4.766  0.00  0.00    +0.000 OA
ATOM     28  H81 UNK     0      -2.467  -3.000   5.009  0.00  0.00    +0.000 HD
ENDBRANCH   9  27
BRANCH  18  29
ATOM     29  O8  UNK     0       0.864   0.023  -0.205  0.00  0.00    +0.000 OA
BRANCH  29  30
ATOM     30  C39 UNK     0       1.417  -0.318  -1.444  0.00  0.00    +0.000 C 
ATOM     31  O11 UNK     0       1.092   0.309  -2.486  0.00  0.00    +0.000 OA
BRANCH  30  32
ATOM     32  C41 UNK     0       2.468  -1.390  -1.507  0.00  0.00    +0.000 C 
BRANCH  32  33
ATOM     33  O12 UNK     0       2.116  -2.421  -0.619  0.00  0.00    +0.000 OA
ATOM     34  H95 UNK     0       2.458  -3.270  -1.004  0.00  0.00    +0.000 HD
ENDBRANCH  32  33
BRANCH  32  35
ATOM     35  C44 UNK     0       3.839  -0.796  -1.102  0.00  0.00    +0.000 C 
BRANCH  35  36
ATOM     36  C48 UNK     0       4.246   0.319  -2.048  0.00  0.00    +0.000 A 
ATOM     37  C50 UNK     0       4.650   0.031  -3.366  0.00  0.00    +0.000 A 
ATOM     38  C53 UNK     0       4.998   1.066  -4.240  0.00  0.00    +0.000 A 
ATOM     39  C54 UNK     0       4.941   2.395  -3.811  0.00  0.00    +0.000 A 
ATOM     40  C52 UNK     0       4.535   2.691  -2.508  0.00  0.00    +0.000 A 
ATOM     41  C49 UNK     0       4.186   1.660  -1.629  0.00  0.00    +0.000 A 
ENDBRANCH  35  36
BRANCH  35  42
ATOM     42  N15 UNK     0       4.878  -1.831  -1.082  0.00  0.00    +0.000 N 
ATOM     43  C51 UNK     0       6.140  -1.621  -0.436  0.00  0.00    +0.000 C 
ATOM     44  O14 UNK     0       6.337  -0.569   0.231  0.00  0.00    +0.000 OA
ATOM     45  H97 UNK     0       4.755  -2.709  -1.636  0.00  0.00    +0.000 HD
BRANCH  43  46
ATOM     46  O13 UNK     0       7.143  -2.593  -0.564  0.00  0.00    +0.000 OA
BRANCH  46  47
ATOM     47  C55 UNK     0       8.484  -2.502  -0.056  0.00  0.00    +0.000 C 
ATOM     48  C56 UNK     0       8.475  -2.390   1.480  0.00  0.00    +0.000 C 
ATOM     49  C57 UNK     0       9.216  -3.792  -0.458  0.00  0.00    +0.000 C 
ATOM     50  C58 UNK     0       9.220  -1.298  -0.675  0.00  0.00    +0.000 C 
ENDBRANCH  46  47
ENDBRANCH  43  46
ENDBRANCH  35  42
ENDBRANCH  32  35
ENDBRANCH  30  32
ENDBRANCH  29  30
ENDBRANCH  18  29
BRANCH   7  51
ATOM     51  O3  UNK     0      -4.181   0.802  -0.412  0.00  0.00    +0.000 OA
BRANCH  51  52
ATOM     52  C37 UNK     0      -5.406   1.494  -0.522  0.00  0.00    +0.000 C 
ATOM     53  O10 UNK     0      -5.763   2.302   0.378  0.00  0.00    +0.000 OA
BRANCH  52  54
ATOM     54  C40 UNK     0      -6.295   1.270  -1.682  0.00  0.00    +0.000 A 
ATOM     55  C42 UNK     0      -5.804   0.713  -2.871  0.00  0.00    +0.000 A 
ATOM     56  C45 UNK     0      -6.654   0.502  -3.962  0.00  0.00    +0.000 A 
ATOM     57  C47 UNK     0      -8.000   0.862  -3.883  0.00  0.00    +0.000 A 
ATOM     58  C46 UNK     0      -8.501   1.430  -2.710  0.00  0.00    +0.000 A 
ATOM     59  C43 UNK     0      -7.656   1.635  -1.613  0.00  0.00    +0.000 A 
ENDBRANCH  52  54
ENDBRANCH  51  52
ENDBRANCH   7  51
BRANCH   4  60
ATOM     60  O2  UNK     0      -2.204  -2.094  -0.466  0.00  0.00    +0.000 OA
BRANCH  60  61
ATOM     61  C36 UNK     0      -2.171  -1.809  -1.836  0.00  0.00    +0.000 C 
ATOM     62  C38 UNK     0      -1.230  -2.576  -2.703  0.00  0.00    +0.000 C 
ATOM     63  O9  UNK     0      -2.910  -0.930  -2.341  0.00  0.00    +0.000 OA
ENDBRANCH  60  61
ENDBRANCH   4  60
TORSDOF 17
