REMARK  17 active torsions:
REMARK  status: ('A' for Active; 'I' for Inactive)
REMARK    1  A    between atoms: O2_2  and  C17_17 
REMARK    2  A    between atoms: O2_2  and  C36_36 
REMARK    3  A    between atoms: O3_3  and  C20_20 
REMARK    4  A    between atoms: O3_3  and  C37_37 
REMARK    5  A    between atoms: O4_4  and  C21_21 
REMARK    6  A    between atoms: O5_5  and  C22_22 
REMARK    7  A    between atoms: O7_7  and  C30_30 
REMARK    8  A    between atoms: O8_8  and  C31_31 
REMARK    9  A    between atoms: O8_8  and  C39_39 
REMARK   10  A    between atoms: O12_12  and  C41_41 
REMARK   11  A    between atoms: O13_13  and  C51_51 
REMARK   12  A    between atoms: O13_13  and  C55_55 
REMARK       I    between atoms: N15_15  and  C51_51 
REMARK   13  A    between atoms: N15_15  and  C44_44 
REMARK   14  A    between atoms: C37_37  and  C40_40 
REMARK   15  A    between atoms: C39_39  and  C41_41 
REMARK   16  A    between atoms: C41_41  and  C44_44 
REMARK   17  A    between atoms: C44_44  and  C48_48 
ROOT
HETATM    1  O1          0       3.933  -8.614  -1.166  1.00  0.00    -0.380 OA
HETATM    2  O6          0       2.002  -3.423   1.112  1.00  0.00    -0.294 OA
HETATM    3  C16         0       4.893  -5.467   0.223  1.00  0.00     0.076 C 
HETATM    4  C17         0       4.915  -7.070  -0.226  1.00  0.00     0.125 C 
HETATM    5  C18         0       3.450  -4.688  -0.403  1.00  0.00     0.055 C 
HETATM    6  C19         0       3.590  -7.733  -0.078  1.00  0.00     0.161 C 
HETATM    7  C20         0       6.509  -4.770  -0.069  1.00  0.00     0.176 C 
HETATM    8  C21         0       6.539  -3.059   0.112  1.00  0.00     0.098 C 
HETATM    9  C22         0       2.242  -5.634   0.001  1.00  0.00     0.137 C 
HETATM   10  C23         0       2.412  -6.974  -0.654  1.00  0.00     0.068 C 
HETATM   11  C24         0       5.901  -2.387   1.387  1.00  0.00     0.013 C 
HETATM   12  C25         0       4.981  -7.607  -1.643  1.00  0.00     0.210 C 
HETATM   13  C26         0       2.949  -3.278   0.330  1.00  0.00     0.171 C 
HETATM   14  C27         0       7.797  -1.949  -0.162  1.00  0.00     0.078 C 
HETATM   15  C28         0       5.065  -1.388   0.419  1.00  0.00    -0.029 C 
HETATM   16  C29         0       3.482  -4.528  -1.953  1.00  0.00     0.027 C 
HETATM   17  C30         0       3.434  -1.727   0.192  1.00  0.00     0.218 C 
HETATM   18  C31         0       7.237  -0.347  -0.462  1.00  0.00     0.164 C 
HETATM   19  C32         0       5.690  -0.416  -0.351  1.00  0.00    -0.048 C 
HETATM   20  C33         0       5.012  -3.127   2.422  1.00  0.00     0.023 C 
HETATM   21  C34         0       6.982  -1.836   2.378  1.00  0.00     0.023 C 
HETATM   22  C35         0       4.933   0.479  -1.302  1.00  0.00     0.046 C 
ENDROOT
BRANCH  18  23
HETATM   23  O8          0       8.048   0.896   0.174  1.00  0.00    -0.309 OA
BRANCH  23  24
HETATM   24  C39         0       7.780   2.385  -0.286  1.00  0.00     0.290 C 
HETATM   25  O11         0       6.926   2.619  -1.145  1.00  0.00    -0.262 OA
BRANCH  24  26
HETATM   26  C41         0       8.760   3.625   0.184  1.00  0.00     0.244 C 
BRANCH  26  27
HETATM   27  O12         0       8.888   3.592   1.601  1.00  0.00    -0.383 OA
HETATM   28  H95         0       9.200   2.694   1.873  1.00  0.00     0.210 HD
ENDBRANCH  26  27
BRANCH  26  29
HETATM   29  C44         0       8.450   5.203  -0.357  1.00  0.00     0.158 C 
BRANCH  29  30
HETATM   30  C48         0       9.717   6.150  -0.066  1.00  0.00    -0.032 A 
HETATM   31  C50         0      10.950   5.590   0.531  1.00  0.00     0.009 A 
HETATM   32  C53         0      12.045   6.341   0.684  1.00  0.00     0.001 A 
HETATM   33  C54         0      12.046   7.745   0.277  1.00  0.00     0.000 A 
HETATM   34  C52         0      10.953   8.266  -0.271  1.00  0.00     0.001 A 
HETATM   35  C49         0       9.760   7.426  -0.473  1.00  0.00     0.009 A 
ENDBRANCH  29  30
BRANCH  29  36
HETATM   36  N15         0       7.029   5.818  -0.033  1.00  0.00    -0.325 N 
HETATM   37  C51         0       6.676   7.245   0.355  1.00  0.00     0.362 C 
HETATM   38  O14         0       7.521   8.088   0.667  1.00  0.00    -0.238 OA
HETATM   39  H97         0       6.258   5.231  -0.218  1.00  0.00     0.165 HD
BRANCH  37  40
HETATM   40  O13         0       5.322   7.702   0.037  1.00  0.00    -0.294 OA
BRANCH  40  41
HETATM   41  C55         0       4.969   9.157   0.222  1.00  0.00     0.061 C 
HETATM   42  C56         0       3.568   9.385  -0.392  1.00  0.00     0.046 C 
HETATM   43  C57         0       4.899   9.540   1.715  1.00  0.00     0.046 C 
HETATM   44  C58         0       5.933  10.127  -0.520  1.00  0.00     0.046 C 
ENDBRANCH  40  41
ENDBRANCH  37  40
ENDBRANCH  29  36
ENDBRANCH  26  29
ENDBRANCH  24  26
ENDBRANCH  23  24
ENDBRANCH  18  23
BRANCH   8  45
HETATM   45  O4          0       5.725  -2.966  -0.991  1.00  0.00    -0.386 OA
HETATM   46  H80         0       6.267  -3.244  -1.786  1.00  0.00     0.210 HD
ENDBRANCH   8  45
BRANCH   7  47
HETATM   47  O3          0       7.419  -5.670   0.619  1.00  0.00    -0.308 OA
BRANCH  47  48
HETATM   48  C37         0       8.709  -5.638   0.042  1.00  0.00     0.293 C 
HETATM   49  O10         0       8.993  -4.749  -0.810  1.00  0.00    -0.259 OA
BRANCH  48  50
HETATM   50  C40         0       9.673  -6.744   0.182  1.00  0.00     0.039 A 
HETATM   51  C42         0       9.293  -7.856   0.871  1.00  0.00     0.017 A 
HETATM   52  C45         0      10.196  -9.009   0.951  1.00  0.00     0.001 A 
HETATM   53  C47         0      11.380  -8.985   0.351  1.00  0.00     0.000 A 
HETATM   54  C46         0      11.791  -7.786  -0.393  1.00  0.00     0.001 A 
HETATM   55  C43         0      10.978  -6.738  -0.463  1.00  0.00     0.017 A 
ENDBRANCH  48  50
ENDBRANCH  47  48
ENDBRANCH   7  47
BRANCH  17  56
HETATM   56  O7          0       2.979  -1.390  -1.129  1.00  0.00    -0.384 OA
HETATM   57  H85         0       2.007  -1.578  -1.206  1.00  0.00     0.211 HD
ENDBRANCH  17  56
BRANCH   4  58
HETATM   58  O2          0       5.982  -7.782   0.614  1.00  0.00    -0.305 OA
BRANCH  58  59
HETATM   59  C36         0       6.258  -9.275   0.770  1.00  0.00     0.255 C 
HETATM   60  C38         0       5.553 -10.473   0.120  1.00  0.00     0.126 C 
HETATM   61  O9          0       7.155  -9.580   1.560  1.00  0.00    -0.266 OA
ENDBRANCH  58  59
ENDBRANCH   4  58
BRANCH   9  62
HETATM   62  O5          0       1.012  -5.086  -0.467  1.00  0.00    -0.394 OA
HETATM   63  H81         0       0.269  -5.696  -0.204  1.00  0.00     0.210 HD
ENDBRANCH   9  62
TORSDOF 17
