REMARK  Name = C:\Users\Maximilian\Desktop\Conformers\converted_pdb\conformers_pdb\Docetaxel_conf_11.pdb
REMARK  25 active torsions:
REMARK  status: ('A' for Active; 'I' for Inactive)
REMARK    1  A    between atoms: C17_4  and  O2_58
REMARK    2  A    between atoms: C18_5  and  C29_16
REMARK    3  A    between atoms: C20_7  and  O3_47
REMARK    4  A    between atoms: C21_8  and  O4_45
REMARK    5  A    between atoms: C22_9  and  O5_62
REMARK    6  A    between atoms: C24_11  and  C33_20
REMARK    7  A    between atoms: C24_11  and  C34_21
REMARK    8  A    between atoms: C30_17  and  O7_56
REMARK    9  A    between atoms: C31_18  and  O8_23
REMARK   10  A    between atoms: C32_19  and  C35_22
REMARK   11  A    between atoms: O8_23  and  C39_24
REMARK   12  A    between atoms: C39_24  and  C41_26
REMARK   13  A    between atoms: C41_26  and  O12_27
REMARK   14  A    between atoms: C41_26  and  C44_29
REMARK   15  A    between atoms: C44_29  and  C48_30
REMARK   16  A    between atoms: C44_29  and  N15_36
REMARK   17  A    between atoms: C51_37  and  O13_40
REMARK   18  A    between atoms: O13_40  and  C55_41
REMARK   19  A    between atoms: C55_41  and  C56_42
REMARK   20  A    between atoms: C55_41  and  C57_43
REMARK   21  A    between atoms: C55_41  and  C58_44
REMARK   22  A    between atoms: O3_47  and  C37_48
REMARK   23  A    between atoms: C37_48  and  C40_50
REMARK   24  A    between atoms: O2_58  and  C36_59
REMARK   25  A    between atoms: C36_59  and  C38_60
REMARK                            x       y       z     vdW  Elec       q    Type
REMARK                         _______ _______ _______ _____ _____    ______ ____
ROOT
ATOM      1  O1  UNK     0      -4.805  -1.889  -0.589  0.00  0.00    +0.000 OA
ATOM      2  O6  UNK     0      -2.764   0.336   4.491  0.00  0.00    +0.000 OA
ATOM      3  C16 UNK     0      -2.447   0.003   0.876  0.00  0.00    +0.000 C 
ATOM      4  C17 UNK     0      -2.984  -0.791  -0.391  0.00  0.00    +0.000 C 
ATOM      5  C18 UNK     0      -2.923  -0.583   2.279  0.00  0.00    +0.000 C 
ATOM      6  C19 UNK     0      -3.502  -2.221  -0.168  0.00  0.00    +0.000 C 
ATOM      7  C20 UNK     0      -2.521   1.593   0.791  0.00  0.00    +0.000 C 
ATOM      8  C21 UNK     0      -1.149   2.417   0.827  0.00  0.00    +0.000 C 
ATOM      9  C22 UNK     0      -2.655  -2.116   2.270  0.00  0.00    +0.000 C 
ATOM     10  C23 UNK     0      -3.521  -2.844   1.242  0.00  0.00    +0.000 C 
ATOM     11  C24 UNK     0      -0.459   2.397   2.247  0.00  0.00    +0.000 C 
ATOM     12  C25 UNK     0      -4.424  -0.562  -0.856  0.00  0.00    +0.000 C 
ATOM     13  C26 UNK     0      -2.141   0.012   3.488  0.00  0.00    +0.000 C 
ATOM     14  C27 UNK     0      -0.131   1.903  -0.263  0.00  0.00    +0.000 C 
ATOM     15  C28 UNK     0       0.000   0.948   2.493  0.00  0.00    +0.000 C 
ATOM     16  C29 UNK     0      -4.448  -0.315   2.526  0.00  0.00    +0.000 C 
ATOM     17  C30 UNK     0      -0.619   0.074   3.579  0.00  0.00    +0.000 C 
ATOM     18  C31 UNK     0       1.052   0.997   0.216  0.00  0.00    +0.000 C 
ATOM     19  C32 UNK     0       0.858   0.387   1.594  0.00  0.00    +0.000 C 
ATOM     20  C33 UNK     0       0.793   3.342   2.297  0.00  0.00    +0.000 C 
ATOM     21  C34 UNK     0      -1.371   2.991   3.372  0.00  0.00    +0.000 C 
ATOM     22  C35 UNK     0       1.667  -0.847   1.930  0.00  0.00    +0.000 C 
ENDROOT
BRANCH   8  23
ATOM     23  O4  UNK     0      -1.453   3.769   0.550  0.00  0.00    +0.000 OA
ATOM     24  H80 UNK     0      -1.668   3.856  -0.415  0.00  0.00    +0.000 HD
ENDBRANCH   8  23
BRANCH  17  25
ATOM     25  O7  UNK     0      -0.203   0.568   4.830  0.00  0.00    +0.000 OA
ATOM     26  H85 UNK     0      -0.267  -0.178   5.484  0.00  0.00    +0.000 HD
ENDBRANCH  17  25
BRANCH   9  27
ATOM     27  O5  UNK     0      -2.903  -2.665   3.542  0.00  0.00    +0.000 OA
ATOM     28  H81 UNK     0      -2.371  -3.498   3.607  0.00  0.00    +0.000 HD
ENDBRANCH   9  27
BRANCH  18  29
ATOM     29  O8  UNK     0       1.261  -0.052  -0.736  0.00  0.00    +0.000 OA
BRANCH  29  30
ATOM     30  C39 UNK     0       1.945   0.133  -1.946  0.00  0.00    +0.000 C 
ATOM     31  O11 UNK     0       2.286   1.292  -2.320  0.00  0.00    +0.000 OA
BRANCH  30  32
ATOM     32  C41 UNK     0       2.331  -1.054  -2.793  0.00  0.00    +0.000 C 
BRANCH  32  33
ATOM     33  O12 UNK     0       1.466  -2.142  -2.571  0.00  0.00    +0.000 OA
ATOM     34  H95 UNK     0       1.516  -2.390  -1.614  0.00  0.00    +0.000 HD
ENDBRANCH  32  33
BRANCH  32  35
ATOM     35  C44 UNK     0       3.824  -1.422  -2.585  0.00  0.00    +0.000 C 
BRANCH  35  36
ATOM     36  C48 UNK     0       4.247  -2.563  -3.495  0.00  0.00    +0.000 A 
ATOM     37  C50 UNK     0       3.848  -3.890  -3.242  0.00  0.00    +0.000 A 
ATOM     38  C53 UNK     0       4.218  -4.920  -4.109  0.00  0.00    +0.000 A 
ATOM     39  C54 UNK     0       4.975  -4.637  -5.249  0.00  0.00    +0.000 A 
ATOM     40  C52 UNK     0       5.371  -3.325  -5.516  0.00  0.00    +0.000 A 
ATOM     41  C49 UNK     0       5.008  -2.292  -4.649  0.00  0.00    +0.000 A 
ENDBRANCH  35  36
BRANCH  35  42
ATOM     42  N15 UNK     0       4.115  -1.735  -1.176  0.00  0.00    +0.000 N 
ATOM     43  C51 UNK     0       5.042  -0.994  -0.374  0.00  0.00    +0.000 C 
ATOM     44  O14 UNK     0       5.741  -0.080  -0.888  0.00  0.00    +0.000 OA
ATOM     45  H97 UNK     0       3.613  -2.523  -0.712  0.00  0.00    +0.000 HD
BRANCH  43  46
ATOM     46  O13 UNK     0       5.153  -1.306   0.989  0.00  0.00    +0.000 OA
BRANCH  46  47
ATOM     47  C55 UNK     0       5.997  -0.648   1.949  0.00  0.00    +0.000 C 
ATOM     48  C56 UNK     0       5.637   0.849   2.051  0.00  0.00    +0.000 C 
ATOM     49  C57 UNK     0       5.747  -1.310   3.313  0.00  0.00    +0.000 C 
ATOM     50  C58 UNK     0       7.479  -0.831   1.574  0.00  0.00    +0.000 C 
ENDBRANCH  46  47
ENDBRANCH  43  46
ENDBRANCH  35  42
ENDBRANCH  32  35
ENDBRANCH  30  32
ENDBRANCH  29  30
ENDBRANCH  18  29
BRANCH   7  51
ATOM     51  O3  UNK     0      -3.350   2.032  -0.297  0.00  0.00    +0.000 OA
BRANCH  51  52
ATOM     52  C37 UNK     0      -4.338   3.024  -0.140  0.00  0.00    +0.000 C 
ATOM     53  O10 UNK     0      -4.347   3.747   0.890  0.00  0.00    +0.000 OA
BRANCH  52  54
ATOM     54  C40 UNK     0      -5.404   3.201  -1.148  0.00  0.00    +0.000 A 
ATOM     55  C42 UNK     0      -6.691   3.600  -0.736  0.00  0.00    +0.000 A 
ATOM     56  C45 UNK     0      -7.718   3.753  -1.670  0.00  0.00    +0.000 A 
ATOM     57  C47 UNK     0      -7.474   3.514  -3.025  0.00  0.00    +0.000 A 
ATOM     58  C46 UNK     0      -6.197   3.127  -3.444  0.00  0.00    +0.000 A 
ATOM     59  C43 UNK     0      -5.164   2.978  -2.512  0.00  0.00    +0.000 A 
ENDBRANCH  52  54
ENDBRANCH  51  52
ENDBRANCH   7  51
BRANCH   4  60
ATOM     60  O2  UNK     0      -2.010  -0.876  -1.449  0.00  0.00    +0.000 OA
BRANCH  60  61
ATOM     61  C36 UNK     0      -2.002  -0.155  -2.646  0.00  0.00    +0.000 C 
ATOM     62  C38 UNK     0      -1.216  -0.665  -3.805  0.00  0.00    +0.000 C 
ATOM     63  O9  UNK     0      -2.617   0.931  -2.751  0.00  0.00    +0.000 OA
ENDBRANCH  60  61
ENDBRANCH   4  60
TORSDOF 17
