REMARK  Name = C:\Users\Maximilian\Desktop\Conformers\converted_pdb\conformers_pdb\Docetaxel_conf_17.pdb
REMARK  25 active torsions:
REMARK  status: ('A' for Active; 'I' for Inactive)
REMARK    1  A    between atoms: C17_4  and  O2_58
REMARK    2  A    between atoms: C18_5  and  C29_16
REMARK    3  A    between atoms: C20_7  and  O3_47
REMARK    4  A    between atoms: C21_8  and  O4_45
REMARK    5  A    between atoms: C22_9  and  O5_62
REMARK    6  A    between atoms: C24_11  and  C33_20
REMARK    7  A    between atoms: C24_11  and  C34_21
REMARK    8  A    between atoms: C30_17  and  O7_56
REMARK    9  A    between atoms: C31_18  and  O8_23
REMARK   10  A    between atoms: C32_19  and  C35_22
REMARK   11  A    between atoms: O8_23  and  C39_24
REMARK   12  A    between atoms: C39_24  and  C41_26
REMARK   13  A    between atoms: C41_26  and  O12_27
REMARK   14  A    between atoms: C41_26  and  C44_29
REMARK   15  A    between atoms: C44_29  and  C48_30
REMARK   16  A    between atoms: C44_29  and  N15_36
REMARK   17  A    between atoms: C51_37  and  O13_40
REMARK   18  A    between atoms: O13_40  and  C55_41
REMARK   19  A    between atoms: C55_41  and  C56_42
REMARK   20  A    between atoms: C55_41  and  C57_43
REMARK   21  A    between atoms: C55_41  and  C58_44
REMARK   22  A    between atoms: O3_47  and  C37_48
REMARK   23  A    between atoms: C37_48  and  C40_50
REMARK   24  A    between atoms: O2_58  and  C36_59
REMARK   25  A    between atoms: C36_59  and  C38_60
REMARK                            x       y       z     vdW  Elec       q    Type
REMARK                         _______ _______ _______ _____ _____    ______ ____
ROOT
ATOM      1  O1  UNK     0      -5.267   2.174   0.490  0.00  0.00    +0.000 OA
ATOM      2  O6  UNK     0      -3.662   0.160  -4.821  0.00  0.00    +0.000 OA
ATOM      3  C16 UNK     0      -3.081   0.295  -1.228  0.00  0.00    +0.000 C 
ATOM      4  C17 UNK     0      -3.540   1.000   0.108  0.00  0.00    +0.000 C 
ATOM      5  C18 UNK     0      -3.628   0.974  -2.562  0.00  0.00    +0.000 C 
ATOM      6  C19 UNK     0      -3.958   2.473   0.046  0.00  0.00    +0.000 C 
ATOM      7  C20 UNK     0      -3.159  -1.295  -1.158  0.00  0.00    +0.000 C 
ATOM      8  C21 UNK     0      -1.814  -2.126  -1.415  0.00  0.00    +0.000 C 
ATOM      9  C22 UNK     0      -3.285   2.493  -2.467  0.00  0.00    +0.000 C 
ATOM     10  C23 UNK     0      -4.010   3.205  -1.315  0.00  0.00    +0.000 C 
ATOM     11  C24 UNK     0      -1.258  -2.032  -2.891  0.00  0.00    +0.000 C 
ATOM     12  C25 UNK     0      -4.979   0.794   0.558  0.00  0.00    +0.000 C 
ATOM     13  C26 UNK     0      -2.957   0.434  -3.855  0.00  0.00    +0.000 C 
ATOM     14  C27 UNK     0      -0.702  -1.691  -0.385  0.00  0.00    +0.000 C 
ATOM     15  C28 UNK     0      -0.782  -0.573  -3.077  0.00  0.00    +0.000 C 
ATOM     16  C29 UNK     0      -5.174   0.782  -2.716  0.00  0.00    +0.000 C 
ATOM     17  C30 UNK     0      -1.452   0.368  -4.070  0.00  0.00    +0.000 C 
ATOM     18  C31 UNK     0       0.500  -0.872  -0.948  0.00  0.00    +0.000 C 
ATOM     19  C32 UNK     0       0.149  -0.084  -2.200  0.00  0.00    +0.000 C 
ATOM     20  C33 UNK     0      -0.029  -2.987  -3.101  0.00  0.00    +0.000 C 
ATOM     21  C34 UNK     0      -2.301  -2.518  -3.951  0.00  0.00    +0.000 C 
ATOM     22  C35 UNK     0       0.850   1.237  -2.427  0.00  0.00    +0.000 C 
ENDROOT
BRANCH   8  23
ATOM     23  O4  UNK     0      -2.088  -3.484  -1.137  0.00  0.00    +0.000 OA
ATOM     24  H80 UNK     0      -2.909  -3.753  -1.624  0.00  0.00    +0.000 HD
ENDBRANCH   8  23
BRANCH  17  25
ATOM     25  O7  UNK     0      -1.137  -0.057  -5.373  0.00  0.00    +0.000 OA
ATOM     26  H85 UNK     0      -1.272   0.721  -5.977  0.00  0.00    +0.000 HD
ENDBRANCH  17  25
BRANCH   9  27
ATOM     27  O5  UNK     0      -3.507   3.168  -3.685  0.00  0.00    +0.000 OA
ATOM     28  H81 UNK     0      -4.486   3.251  -3.819  0.00  0.00    +0.000 HD
ENDBRANCH   9  27
BRANCH  18  29
ATOM     29  O8  UNK     0       0.958   0.025   0.068  0.00  0.00    +0.000 OA
BRANCH  29  30
ATOM     30  C39 UNK     0       1.922  -0.300   1.031  0.00  0.00    +0.000 C 
ATOM     31  O11 UNK     0       2.420  -1.458   1.076  0.00  0.00    +0.000 OA
BRANCH  30  32
ATOM     32  C41 UNK     0       2.361   0.750   2.021  0.00  0.00    +0.000 C 
BRANCH  32  33
ATOM     33  O12 UNK     0       1.441   1.811   2.023  0.00  0.00    +0.000 OA
ATOM     34  H95 UNK     0       0.630   1.492   2.492  0.00  0.00    +0.000 HD
ENDBRANCH  32  33
BRANCH  32  35
ATOM     35  C44 UNK     0       3.770   1.322   1.730  0.00  0.00    +0.000 C 
BRANCH  35  36
ATOM     36  C48 UNK     0       3.924   1.796   0.294  0.00  0.00    +0.000 A 
ATOM     37  C50 UNK     0       4.386   0.929  -0.718  0.00  0.00    +0.000 A 
ATOM     38  C53 UNK     0       4.543   1.391  -2.028  0.00  0.00    +0.000 A 
ATOM     39  C54 UNK     0       4.229   2.714  -2.346  0.00  0.00    +0.000 A 
ATOM     40  C52 UNK     0       3.741   3.573  -1.358  0.00  0.00    +0.000 A 
ATOM     41  C49 UNK     0       3.591   3.121  -0.044  0.00  0.00    +0.000 A 
ENDBRANCH  35  36
BRANCH  35  42
ATOM     42  N15 UNK     0       4.831   0.375   2.089  0.00  0.00    +0.000 N 
ATOM     43  C51 UNK     0       6.193   0.797   2.216  0.00  0.00    +0.000 C 
ATOM     44  O14 UNK     0       6.489   2.013   2.071  0.00  0.00    +0.000 OA
ATOM     45  H97 UNK     0       4.607  -0.635   2.260  0.00  0.00    +0.000 HD
BRANCH  43  46
ATOM     46  O13 UNK     0       7.183  -0.154   2.508  0.00  0.00    +0.000 OA
BRANCH  46  47
ATOM     47  C55 UNK     0       8.580   0.122   2.704  0.00  0.00    +0.000 C 
ATOM     48  C56 UNK     0       9.202   0.743   1.438  0.00  0.00    +0.000 C 
ATOM     49  C57 UNK     0       8.784   1.048   3.918  0.00  0.00    +0.000 C 
ATOM     50  C58 UNK     0       9.271  -1.218   2.979  0.00  0.00    +0.000 C 
ENDBRANCH  46  47
ENDBRANCH  43  46
ENDBRANCH  35  42
ENDBRANCH  32  35
ENDBRANCH  30  32
ENDBRANCH  29  30
ENDBRANCH  18  29
BRANCH   7  51
ATOM     51  O3  UNK     0      -3.661  -1.696   0.125  0.00  0.00    +0.000 OA
BRANCH  51  52
ATOM     52  C37 UNK     0      -4.757  -2.544   0.339  0.00  0.00    +0.000 C 
ATOM     53  O10 UNK     0      -5.378  -3.049  -0.637  0.00  0.00    +0.000 OA
BRANCH  52  54
ATOM     54  C40 UNK     0      -5.182  -2.840   1.722  0.00  0.00    +0.000 A 
ATOM     55  C42 UNK     0      -4.417  -2.379   2.808  0.00  0.00    +0.000 A 
ATOM     56  C45 UNK     0      -4.825  -2.632   4.120  0.00  0.00    +0.000 A 
ATOM     57  C47 UNK     0      -6.003  -3.342   4.362  0.00  0.00    +0.000 A 
ATOM     58  C46 UNK     0      -6.770  -3.807   3.292  0.00  0.00    +0.000 A 
ATOM     59  C43 UNK     0      -6.367  -3.553   1.976  0.00  0.00    +0.000 A 
ENDBRANCH  52  54
ENDBRANCH  51  52
ENDBRANCH   7  51
BRANCH   4  60
ATOM     60  O2  UNK     0      -2.597   0.725   1.165  0.00  0.00    +0.000 OA
BRANCH  60  61
ATOM     61  C36 UNK     0      -2.698   1.072   2.528  0.00  0.00    +0.000 C 
ATOM     62  C38 UNK     0      -1.793   0.420   3.515  0.00  0.00    +0.000 C 
ATOM     63  O9  UNK     0      -3.546   1.909   2.940  0.00  0.00    +0.000 OA
ENDBRANCH  60  61
ENDBRANCH   4  60
TORSDOF 17
