REMARK  Name = C:\Users\Maximilian\Desktop\Conformers\converted_pdb\conformers_pdb\Docetaxel_conf_63.pdb
REMARK  25 active torsions:
REMARK  status: ('A' for Active; 'I' for Inactive)
REMARK    1  A    between atoms: C17_4  and  O2_58
REMARK    2  A    between atoms: C18_5  and  C29_16
REMARK    3  A    between atoms: C20_7  and  O3_47
REMARK    4  A    between atoms: C21_8  and  O4_45
REMARK    5  A    between atoms: C22_9  and  O5_62
REMARK    6  A    between atoms: C24_11  and  C33_20
REMARK    7  A    between atoms: C24_11  and  C34_21
REMARK    8  A    between atoms: C30_17  and  O7_56
REMARK    9  A    between atoms: C31_18  and  O8_23
REMARK   10  A    between atoms: C32_19  and  C35_22
REMARK   11  A    between atoms: O8_23  and  C39_24
REMARK   12  A    between atoms: C39_24  and  C41_26
REMARK   13  A    between atoms: C41_26  and  O12_27
REMARK   14  A    between atoms: C41_26  and  C44_29
REMARK   15  A    between atoms: C44_29  and  C48_30
REMARK   16  A    between atoms: C44_29  and  N15_36
REMARK   17  A    between atoms: C51_37  and  O13_40
REMARK   18  A    between atoms: O13_40  and  C55_41
REMARK   19  A    between atoms: C55_41  and  C56_42
REMARK   20  A    between atoms: C55_41  and  C57_43
REMARK   21  A    between atoms: C55_41  and  C58_44
REMARK   22  A    between atoms: O3_47  and  C37_48
REMARK   23  A    between atoms: C37_48  and  C40_50
REMARK   24  A    between atoms: O2_58  and  C36_59
REMARK   25  A    between atoms: C36_59  and  C38_60
REMARK                            x       y       z     vdW  Elec       q    Type
REMARK                         _______ _______ _______ _____ _____    ______ ____
ROOT
ATOM      1  O1  UNK     0      -6.375  -0.452   1.259  0.00  0.00    +0.000 OA
ATOM      2  O6  UNK     0      -2.419  -1.789  -2.740  0.00  0.00    +0.000 OA
ATOM      3  C16 UNK     0      -3.271  -0.834   0.132  0.00  0.00    +0.000 C 
ATOM      4  C17 UNK     0      -4.356   0.077   0.850  0.00  0.00    +0.000 C 
ATOM      5  C18 UNK     0      -3.937  -1.855  -0.915  0.00  0.00    +0.000 C 
ATOM      6  C19 UNK     0      -5.738   0.269   0.220  0.00  0.00    +0.000 C 
ATOM      7  C20 UNK     0      -2.106  -1.226   1.188  0.00  0.00    +0.000 C 
ATOM      8  C21 UNK     0      -0.689  -1.905   0.802  0.00  0.00    +0.000 C 
ATOM      9  C22 UNK     0      -4.841  -0.982  -1.867  0.00  0.00    +0.000 C 
ATOM     10  C23 UNK     0      -6.035  -0.317  -1.176  0.00  0.00    +0.000 C 
ATOM     11  C24 UNK     0      -0.699  -3.464   0.474  0.00  0.00    +0.000 C 
ATOM     12  C25 UNK     0      -5.149  -0.654   1.930  0.00  0.00    +0.000 C 
ATOM     13  C26 UNK     0      -2.854  -2.478  -1.826  0.00  0.00    +0.000 C 
ATOM     14  C27 UNK     0      -0.033  -1.065  -0.367  0.00  0.00    +0.000 C 
ATOM     15  C28 UNK     0      -0.845  -3.646  -1.052  0.00  0.00    +0.000 C 
ATOM     16  C29 UNK     0      -4.904  -2.946  -0.341  0.00  0.00    +0.000 C 
ATOM     17  C30 UNK     0      -2.209  -3.853  -1.698  0.00  0.00    +0.000 C 
ATOM     18  C31 UNK     0       0.886  -1.864  -1.298  0.00  0.00    +0.000 C 
ATOM     19  C32 UNK     0       0.141  -3.091  -1.826  0.00  0.00    +0.000 C 
ATOM     20  C33 UNK     0       0.642  -4.183   0.882  0.00  0.00    +0.000 C 
ATOM     21  C34 UNK     0      -1.729  -4.228   1.344  0.00  0.00    +0.000 C 
ATOM     22  C35 UNK     0       0.342  -3.512  -3.267  0.00  0.00    +0.000 C 
ENDROOT
BRANCH   8  23
ATOM     23  O4  UNK     0       0.118  -1.820   1.971  0.00  0.00    +0.000 OA
ATOM     24  H80 UNK     0       0.862  -1.170   1.862  0.00  0.00    +0.000 HD
ENDBRANCH   8  23
BRANCH  17  25
ATOM     25  O7  UNK     0      -2.996  -4.800  -1.029  0.00  0.00    +0.000 OA
ATOM     26  H85 UNK     0      -2.628  -5.695  -1.255  0.00  0.00    +0.000 HD
ENDBRANCH  17  25
BRANCH   9  27
ATOM     27  O5  UNK     0      -5.312  -1.758  -2.946  0.00  0.00    +0.000 OA
ATOM     28  H81 UNK     0      -5.616  -1.120  -3.646  0.00  0.00    +0.000 HD
ENDBRANCH   9  27
BRANCH  18  29
ATOM     29  O8  UNK     0       1.256  -1.004  -2.382  0.00  0.00    +0.000 OA
BRANCH  29  30
ATOM     30  C39 UNK     0       2.580  -0.625  -2.661  0.00  0.00    +0.000 C 
ATOM     31  O11 UNK     0       3.559  -1.310  -2.243  0.00  0.00    +0.000 OA
BRANCH  30  32
ATOM     32  C41 UNK     0       2.832   0.670  -3.380  0.00  0.00    +0.000 C 
BRANCH  32  33
ATOM     33  O12 UNK     0       3.970   0.558  -4.192  0.00  0.00    +0.000 OA
ATOM     34  H95 UNK     0       3.691   0.061  -5.006  0.00  0.00    +0.000 HD
ENDBRANCH  32  33
BRANCH  32  35
ATOM     35  C44 UNK     0       3.006   1.818  -2.359  0.00  0.00    +0.000 C 
BRANCH  35  36
ATOM     36  C48 UNK     0       2.947   3.173  -3.042  0.00  0.00    +0.000 A 
ATOM     37  C50 UNK     0       1.807   3.983  -2.896  0.00  0.00    +0.000 A 
ATOM     38  C53 UNK     0       1.723   5.222  -3.546  0.00  0.00    +0.000 A 
ATOM     39  C54 UNK     0       2.775   5.663  -4.354  0.00  0.00    +0.000 A 
ATOM     40  C52 UNK     0       3.901   4.857  -4.531  0.00  0.00    +0.000 A 
ATOM     41  C49 UNK     0       3.983   3.614  -3.891  0.00  0.00    +0.000 A 
ENDBRANCH  35  36
BRANCH  35  42
ATOM     42  N15 UNK     0       4.250   1.674  -1.600  0.00  0.00    +0.000 N 
ATOM     43  C51 UNK     0       4.315   1.148  -0.270  0.00  0.00    +0.000 C 
ATOM     44  O14 UNK     0       3.296   0.609   0.241  0.00  0.00    +0.000 OA
ATOM     45  H97 UNK     0       5.159   1.983  -2.026  0.00  0.00    +0.000 HD
BRANCH  43  46
ATOM     46  O13 UNK     0       5.538   1.189   0.414  0.00  0.00    +0.000 OA
BRANCH  46  47
ATOM     47  C55 UNK     0       5.795   0.670   1.727  0.00  0.00    +0.000 C 
ATOM     48  C56 UNK     0       5.656  -0.862   1.726  0.00  0.00    +0.000 C 
ATOM     49  C57 UNK     0       7.243   1.041   2.083  0.00  0.00    +0.000 C 
ATOM     50  C58 UNK     0       4.848   1.307   2.766  0.00  0.00    +0.000 C 
ENDBRANCH  46  47
ENDBRANCH  43  46
ENDBRANCH  35  42
ENDBRANCH  32  35
ENDBRANCH  30  32
ENDBRANCH  29  30
ENDBRANCH  18  29
BRANCH   7  51
ATOM     51  O3  UNK     0      -1.735   0.031   1.782  0.00  0.00    +0.000 OA
BRANCH  51  52
ATOM     52  C37 UNK     0      -1.262   0.254   3.083  0.00  0.00    +0.000 C 
ATOM     53  O10 UNK     0      -1.486  -0.589   4.002  0.00  0.00    +0.000 OA
BRANCH  52  54
ATOM     54  C40 UNK     0      -0.454   1.468   3.340  0.00  0.00    +0.000 A 
ATOM     55  C42 UNK     0       0.124   1.713   4.603  0.00  0.00    +0.000 A 
ATOM     56  C45 UNK     0       0.903   2.868   4.807  0.00  0.00    +0.000 A 
ATOM     57  C47 UNK     0       1.089   3.791   3.781  0.00  0.00    +0.000 A 
ATOM     58  C46 UNK     0       0.530   3.555   2.523  0.00  0.00    +0.000 A 
ATOM     59  C43 UNK     0      -0.228   2.398   2.301  0.00  0.00    +0.000 A 
ENDBRANCH  52  54
ENDBRANCH  51  52
ENDBRANCH   7  51
BRANCH   4  60
ATOM     60  O2  UNK     0      -3.814   1.350   1.262  0.00  0.00    +0.000 OA
BRANCH  60  61
ATOM     61  C36 UNK     0      -4.402   2.290   2.144  0.00  0.00    +0.000 C 
ATOM     62  C38 UNK     0      -3.611   3.473   2.602  0.00  0.00    +0.000 C 
ATOM     63  O9  UNK     0      -5.578   2.151   2.573  0.00  0.00    +0.000 OA
ENDBRANCH  60  61
ENDBRANCH   4  60
TORSDOF 17
