REMARK  Name = C:\Users\Maximilian\Desktop\Conformers\converted_pdb\conformers_pdb\Docetaxel_conf_25.pdb
REMARK  25 active torsions:
REMARK  status: ('A' for Active; 'I' for Inactive)
REMARK    1  A    between atoms: C17_4  and  O2_58
REMARK    2  A    between atoms: C18_5  and  C29_16
REMARK    3  A    between atoms: C20_7  and  O3_47
REMARK    4  A    between atoms: C21_8  and  O4_45
REMARK    5  A    between atoms: C22_9  and  O5_62
REMARK    6  A    between atoms: C24_11  and  C33_20
REMARK    7  A    between atoms: C24_11  and  C34_21
REMARK    8  A    between atoms: C30_17  and  O7_56
REMARK    9  A    between atoms: C31_18  and  O8_23
REMARK   10  A    between atoms: C32_19  and  C35_22
REMARK   11  A    between atoms: O8_23  and  C39_24
REMARK   12  A    between atoms: C39_24  and  C41_26
REMARK   13  A    between atoms: C41_26  and  O12_27
REMARK   14  A    between atoms: C41_26  and  C44_29
REMARK   15  A    between atoms: C44_29  and  C48_30
REMARK   16  A    between atoms: C44_29  and  N15_36
REMARK   17  A    between atoms: C51_37  and  O13_40
REMARK   18  A    between atoms: O13_40  and  C55_41
REMARK   19  A    between atoms: C55_41  and  C56_42
REMARK   20  A    between atoms: C55_41  and  C57_43
REMARK   21  A    between atoms: C55_41  and  C58_44
REMARK   22  A    between atoms: O3_47  and  C37_48
REMARK   23  A    between atoms: C37_48  and  C40_50
REMARK   24  A    between atoms: O2_58  and  C36_59
REMARK   25  A    between atoms: C36_59  and  C38_60
REMARK                            x       y       z     vdW  Elec       q    Type
REMARK                         _______ _______ _______ _____ _____    ______ ____
ROOT
ATOM      1  O1  UNK     0      -5.649   0.754   1.817  0.00  0.00    +0.000 OA
ATOM      2  O6  UNK     0      -3.567   2.557  -3.563  0.00  0.00    +0.000 OA
ATOM      3  C16 UNK     0      -3.110   0.600  -0.452  0.00  0.00    +0.000 C 
ATOM      4  C17 UNK     0      -3.666   0.499   1.048  0.00  0.00    +0.000 C 
ATOM      5  C18 UNK     0      -3.815   1.737  -1.331  0.00  0.00    +0.000 C 
ATOM      6  C19 UNK     0      -4.572   1.622   1.586  0.00  0.00    +0.000 C 
ATOM      7  C20 UNK     0      -2.930  -0.805  -1.213  0.00  0.00    +0.000 C 
ATOM      8  C21 UNK     0      -1.499  -1.181  -1.827  0.00  0.00    +0.000 C 
ATOM      9  C22 UNK     0      -3.993   3.005  -0.451  0.00  0.00    +0.000 C 
ATOM     10  C23 UNK     0      -4.989   2.773   0.673  0.00  0.00    +0.000 C 
ATOM     11  C24 UNK     0      -1.018  -0.217  -2.977  0.00  0.00    +0.000 C 
ATOM     12  C25 UNK     0      -4.910  -0.343   1.346  0.00  0.00    +0.000 C 
ATOM     13  C26 UNK     0      -2.979   2.193  -2.552  0.00  0.00    +0.000 C 
ATOM     14  C27 UNK     0      -0.412  -1.256  -0.686  0.00  0.00    +0.000 C 
ATOM     15  C28 UNK     0      -0.667   1.131  -2.287  0.00  0.00    +0.000 C 
ATOM     16  C29 UNK     0      -5.215   1.271  -1.855  0.00  0.00    +0.000 C 
ATOM     17  C30 UNK     0      -1.478   2.414  -2.499  0.00  0.00    +0.000 C 
ATOM     18  C31 UNK     0       0.750  -0.230  -0.750  0.00  0.00    +0.000 C 
ATOM     19  C32 UNK     0       0.282   1.104  -1.301  0.00  0.00    +0.000 C 
ATOM     20  C33 UNK     0       0.277  -0.775  -3.674  0.00  0.00    +0.000 C 
ATOM     21  C34 UNK     0      -2.060  -0.164  -4.148  0.00  0.00    +0.000 C 
ATOM     22  C35 UNK     0       0.893   2.371  -0.744  0.00  0.00    +0.000 C 
ENDROOT
BRANCH   8  23
ATOM     23  O4  UNK     0      -1.619  -2.457  -2.425  0.00  0.00    +0.000 OA
ATOM     24  H80 UNK     0      -1.689  -3.149  -1.717  0.00  0.00    +0.000 HD
ENDBRANCH   8  23
BRANCH  17  25
ATOM     25  O7  UNK     0      -1.010   3.124  -3.618  0.00  0.00    +0.000 OA
ATOM     26  H85 UNK     0      -1.060   2.530  -4.408  0.00  0.00    +0.000 HD
ENDBRANCH  17  25
BRANCH   9  27
ATOM     27  O5  UNK     0      -4.431   4.095  -1.222  0.00  0.00    +0.000 OA
ATOM     28  H81 UNK     0      -4.221   4.920  -0.708  0.00  0.00    +0.000 HD
ENDBRANCH   9  27
BRANCH  18  29
ATOM     29  O8  UNK     0       1.322  -0.065   0.553  0.00  0.00    +0.000 OA
BRANCH  29  30
ATOM     30  C39 UNK     0       2.126  -1.036   1.165  0.00  0.00    +0.000 C 
ATOM     31  O11 UNK     0       2.223  -2.190   0.667  0.00  0.00    +0.000 OA
BRANCH  30  32
ATOM     32  C41 UNK     0       2.973  -0.695   2.361  0.00  0.00    +0.000 C 
BRANCH  32  33
ATOM     33  O12 UNK     0       2.434   0.379   3.092  0.00  0.00    +0.000 OA
ATOM     34  H95 UNK     0       2.356   1.159   2.482  0.00  0.00    +0.000 HD
ENDBRANCH  32  33
BRANCH  32  35
ATOM     35  C44 UNK     0       4.443  -0.443   1.937  0.00  0.00    +0.000 C 
BRANCH  35  36
ATOM     36  C48 UNK     0       5.353  -0.254   3.142  0.00  0.00    +0.000 A 
ATOM     37  C50 UNK     0       6.132  -1.337   3.602  0.00  0.00    +0.000 A 
ATOM     38  C53 UNK     0       6.964  -1.186   4.715  0.00  0.00    +0.000 A 
ATOM     39  C54 UNK     0       7.019   0.033   5.390  0.00  0.00    +0.000 A 
ATOM     40  C52 UNK     0       6.236   1.105   4.959  0.00  0.00    +0.000 A 
ATOM     41  C49 UNK     0       5.396   0.965   3.848  0.00  0.00    +0.000 A 
ENDBRANCH  35  36
BRANCH  35  42
ATOM     42  N15 UNK     0       4.552   0.699   1.017  0.00  0.00    +0.000 N 
ATOM     43  C51 UNK     0       5.308   0.650  -0.199  0.00  0.00    +0.000 C 
ATOM     44  O14 UNK     0       5.909  -0.407  -0.537  0.00  0.00    +0.000 OA
ATOM     45  H97 UNK     0       4.146   1.627   1.276  0.00  0.00    +0.000 HD
BRANCH  43  46
ATOM     46  O13 UNK     0       5.362   1.797  -1.000  0.00  0.00    +0.000 OA
BRANCH  46  47
ATOM     47  C55 UNK     0       6.051   1.924  -2.251  0.00  0.00    +0.000 C 
ATOM     48  C56 UNK     0       7.564   1.709  -2.059  0.00  0.00    +0.000 C 
ATOM     49  C57 UNK     0       5.492   0.918  -3.281  0.00  0.00    +0.000 C 
ATOM     50  C58 UNK     0       5.804   3.348  -2.769  0.00  0.00    +0.000 C 
ENDBRANCH  46  47
ENDBRANCH  43  46
ENDBRANCH  35  42
ENDBRANCH  32  35
ENDBRANCH  30  32
ENDBRANCH  29  30
ENDBRANCH  18  29
BRANCH   7  51
ATOM     51  O3  UNK     0      -3.375  -1.903  -0.394  0.00  0.00    +0.000 OA
BRANCH  51  52
ATOM     52  C37 UNK     0      -4.262  -2.902  -0.842  0.00  0.00    +0.000 C 
ATOM     53  O10 UNK     0      -4.691  -2.887  -2.027  0.00  0.00    +0.000 OA
BRANCH  52  54
ATOM     54  C40 UNK     0      -4.733  -3.955   0.077  0.00  0.00    +0.000 A 
ATOM     55  C42 UNK     0      -3.901  -4.468   1.090  0.00  0.00    +0.000 A 
ATOM     56  C45 UNK     0      -4.378  -5.438   1.977  0.00  0.00    +0.000 A 
ATOM     57  C47 UNK     0      -5.687  -5.914   1.852  0.00  0.00    +0.000 A 
ATOM     58  C46 UNK     0      -6.515  -5.435   0.828  0.00  0.00    +0.000 A 
ATOM     59  C43 UNK     0      -6.040  -4.466  -0.061  0.00  0.00    +0.000 A 
ENDBRANCH  52  54
ENDBRANCH  51  52
ENDBRANCH   7  51
BRANCH   4  60
ATOM     60  O2  UNK     0      -2.612   0.368   2.016  0.00  0.00    +0.000 OA
BRANCH  60  61
ATOM     61  C36 UNK     0      -2.048  -0.799   2.540  0.00  0.00    +0.000 C 
ATOM     62  C38 UNK     0      -0.947  -0.688   3.534  0.00  0.00    +0.000 C 
ATOM     63  O9  UNK     0      -2.440  -1.939   2.183  0.00  0.00    +0.000 OA
ENDBRANCH  60  61
ENDBRANCH   4  60
TORSDOF 17
