REMARK  Name = C:\Users\Maximilian\Desktop\Conformers\converted_pdb\conformers_pdb\Docetaxel_conf_24.pdb
REMARK  25 active torsions:
REMARK  status: ('A' for Active; 'I' for Inactive)
REMARK    1  A    between atoms: C17_4  and  O2_58
REMARK    2  A    between atoms: C18_5  and  C29_16
REMARK    3  A    between atoms: C20_7  and  O3_47
REMARK    4  A    between atoms: C21_8  and  O4_45
REMARK    5  A    between atoms: C22_9  and  O5_62
REMARK    6  A    between atoms: C24_11  and  C33_20
REMARK    7  A    between atoms: C24_11  and  C34_21
REMARK    8  A    between atoms: C30_17  and  O7_56
REMARK    9  A    between atoms: C31_18  and  O8_23
REMARK   10  A    between atoms: C32_19  and  C35_22
REMARK   11  A    between atoms: O8_23  and  C39_24
REMARK   12  A    between atoms: C39_24  and  C41_26
REMARK   13  A    between atoms: C41_26  and  O12_27
REMARK   14  A    between atoms: C41_26  and  C44_29
REMARK   15  A    between atoms: C44_29  and  C48_30
REMARK   16  A    between atoms: C44_29  and  N15_36
REMARK   17  A    between atoms: C51_37  and  O13_40
REMARK   18  A    between atoms: O13_40  and  C55_41
REMARK   19  A    between atoms: C55_41  and  C56_42
REMARK   20  A    between atoms: C55_41  and  C57_43
REMARK   21  A    between atoms: C55_41  and  C58_44
REMARK   22  A    between atoms: O3_47  and  C37_48
REMARK   23  A    between atoms: C37_48  and  C40_50
REMARK   24  A    between atoms: O2_58  and  C36_59
REMARK   25  A    between atoms: C36_59  and  C38_60
REMARK                            x       y       z     vdW  Elec       q    Type
REMARK                         _______ _______ _______ _____ _____    ______ ____
ROOT
ATOM      1  O1  UNK     0      -6.294   1.278  -2.685  0.00  0.00    +0.000 OA
ATOM      2  O6  UNK     0      -0.623   0.458  -2.413  0.00  0.00    +0.000 OA
ATOM      3  C16 UNK     0      -3.504   0.317  -1.171  0.00  0.00    +0.000 C 
ATOM      4  C17 UNK     0      -4.889   1.117  -1.081  0.00  0.00    +0.000 C 
ATOM      5  C18 UNK     0      -2.963   0.225  -2.687  0.00  0.00    +0.000 C 
ATOM      6  C19 UNK     0      -5.247   2.090  -2.217  0.00  0.00    +0.000 C 
ATOM      7  C20 UNK     0      -3.473  -0.901  -0.102  0.00  0.00    +0.000 C 
ATOM      8  C21 UNK     0      -2.171  -1.809   0.242  0.00  0.00    +0.000 C 
ATOM      9  C22 UNK     0      -2.876   1.723  -3.182  0.00  0.00    +0.000 C 
ATOM     10  C23 UNK     0      -4.232   2.429  -3.326  0.00  0.00    +0.000 C 
ATOM     11  C24 UNK     0      -1.782  -2.947  -0.808  0.00  0.00    +0.000 C 
ATOM     12  C25 UNK     0      -6.118   0.378  -1.623  0.00  0.00    +0.000 C 
ATOM     13  C26 UNK     0      -1.517  -0.316  -2.726  0.00  0.00    +0.000 C 
ATOM     14  C27 UNK     0      -0.952  -0.850   0.560  0.00  0.00    +0.000 C 
ATOM     15  C28 UNK     0      -0.697  -2.398  -1.750  0.00  0.00    +0.000 C 
ATOM     16  C29 UNK     0      -3.873  -0.527  -3.717  0.00  0.00    +0.000 C 
ATOM     17  C30 UNK     0      -1.055  -1.728  -3.068  0.00  0.00    +0.000 C 
ATOM     18  C31 UNK     0       0.437  -1.460   0.267  0.00  0.00    +0.000 C 
ATOM     19  C32 UNK     0       0.472  -1.995  -1.163  0.00  0.00    +0.000 C 
ATOM     20  C33 UNK     0      -1.171  -4.231  -0.136  0.00  0.00    +0.000 C 
ATOM     21  C34 UNK     0      -3.029  -3.537  -1.501  0.00  0.00    +0.000 C 
ATOM     22  C35 UNK     0       1.734  -1.799  -1.974  0.00  0.00    +0.000 C 
ENDROOT
BRANCH   8  23
ATOM     23  O4  UNK     0      -2.506  -2.520   1.422  0.00  0.00    +0.000 OA
ATOM     24  H80 UNK     0      -1.721  -2.582   2.036  0.00  0.00    +0.000 HD
ENDBRANCH   8  23
BRANCH  17  25
ATOM     25  O7  UNK     0      -1.968  -2.471  -3.820  0.00  0.00    +0.000 OA
ATOM     26  H85 UNK     0      -1.493  -3.294  -4.113  0.00  0.00    +0.000 HD
ENDBRANCH  17  25
BRANCH   9  27
ATOM     27  O5  UNK     0      -2.115   1.852  -4.357  0.00  0.00    +0.000 OA
ATOM     28  H81 UNK     0      -2.645   1.488  -5.117  0.00  0.00    +0.000 HD
ENDBRANCH   9  27
BRANCH  18  29
ATOM     29  O8  UNK     0       1.430  -0.443   0.405  0.00  0.00    +0.000 OA
BRANCH  29  30
ATOM     30  C39 UNK     0       1.939   0.003   1.631  0.00  0.00    +0.000 C 
ATOM     31  O11 UNK     0       1.489  -0.446   2.721  0.00  0.00    +0.000 OA
BRANCH  30  32
ATOM     32  C41 UNK     0       3.043   1.019   1.624  0.00  0.00    +0.000 C 
BRANCH  32  33
ATOM     33  O12 UNK     0       2.626   2.148   0.900  0.00  0.00    +0.000 OA
ATOM     34  H95 UNK     0       1.983   2.638   1.480  0.00  0.00    +0.000 HD
ENDBRANCH  32  33
BRANCH  32  35
ATOM     35  C44 UNK     0       4.313   0.429   0.966  0.00  0.00    +0.000 C 
BRANCH  35  36
ATOM     36  C48 UNK     0       4.908  -0.687   1.805  0.00  0.00    +0.000 A 
ATOM     37  C50 UNK     0       4.858  -2.018   1.348  0.00  0.00    +0.000 A 
ATOM     38  C53 UNK     0       5.421  -3.046   2.109  0.00  0.00    +0.000 A 
ATOM     39  C54 UNK     0       6.015  -2.764   3.343  0.00  0.00    +0.000 A 
ATOM     40  C52 UNK     0       6.068  -1.447   3.808  0.00  0.00    +0.000 A 
ATOM     41  C49 UNK     0       5.514  -0.413   3.048  0.00  0.00    +0.000 A 
ENDBRANCH  35  36
BRANCH  35  42
ATOM     42  N15 UNK     0       5.316   1.479   0.766  0.00  0.00    +0.000 N 
ATOM     43  C51 UNK     0       6.200   1.507  -0.362  0.00  0.00    +0.000 C 
ATOM     44  O14 UNK     0       6.089   0.643  -1.273  0.00  0.00    +0.000 OA
ATOM     45  H97 UNK     0       5.471   2.180   1.524  0.00  0.00    +0.000 HD
BRANCH  43  46
ATOM     46  O13 UNK     0       7.175   2.512  -0.437  0.00  0.00    +0.000 OA
BRANCH  46  47
ATOM     47  C55 UNK     0       8.118   2.706  -1.500  0.00  0.00    +0.000 C 
ATOM     48  C56 UNK     0       8.988   1.450  -1.699  0.00  0.00    +0.000 C 
ATOM     49  C57 UNK     0       7.387   3.072  -2.807  0.00  0.00    +0.000 C 
ATOM     50  C58 UNK     0       9.025   3.877  -1.095  0.00  0.00    +0.000 C 
ENDBRANCH  46  47
ENDBRANCH  43  46
ENDBRANCH  35  42
ENDBRANCH  32  35
ENDBRANCH  30  32
ENDBRANCH  29  30
ENDBRANCH  18  29
BRANCH   7  51
ATOM     51  O3  UNK     0      -3.801  -0.270   1.152  0.00  0.00    +0.000 OA
BRANCH  51  52
ATOM     52  C37 UNK     0      -4.443  -0.870   2.248  0.00  0.00    +0.000 C 
ATOM     53  O10 UNK     0      -5.102  -1.938   2.096  0.00  0.00    +0.000 OA
BRANCH  52  54
ATOM     54  C40 UNK     0      -4.325  -0.237   3.582  0.00  0.00    +0.000 A 
ATOM     55  C42 UNK     0      -4.907  -0.822   4.721  0.00  0.00    +0.000 A 
ATOM     56  C45 UNK     0      -4.760  -0.217   5.976  0.00  0.00    +0.000 A 
ATOM     57  C47 UNK     0      -4.048   0.978   6.101  0.00  0.00    +0.000 A 
ATOM     58  C46 UNK     0      -3.468   1.565   4.977  0.00  0.00    +0.000 A 
ATOM     59  C43 UNK     0      -3.602   0.962   3.722  0.00  0.00    +0.000 A 
ENDBRANCH  52  54
ENDBRANCH  51  52
ENDBRANCH   7  51
BRANCH   4  60
ATOM     60  O2  UNK     0      -5.060   1.836   0.161  0.00  0.00    +0.000 OA
BRANCH  60  61
ATOM     61  C36 UNK     0      -6.028   1.619   1.164  0.00  0.00    +0.000 C 
ATOM     62  C38 UNK     0      -6.262   2.677   2.195  0.00  0.00    +0.000 C 
ATOM     63  O9  UNK     0      -6.695   0.547   1.221  0.00  0.00    +0.000 OA
ENDBRANCH  60  61
ENDBRANCH   4  60
TORSDOF 17
