REMARK  Name = C:\Users\Maximilian\Desktop\Conformers\converted_pdb\conformers_pdb\Docetaxel_conf_62.pdb
REMARK  25 active torsions:
REMARK  status: ('A' for Active; 'I' for Inactive)
REMARK    1  A    between atoms: C17_4  and  O2_58
REMARK    2  A    between atoms: C18_5  and  C29_16
REMARK    3  A    between atoms: C20_7  and  O3_47
REMARK    4  A    between atoms: C21_8  and  O4_45
REMARK    5  A    between atoms: C22_9  and  O5_62
REMARK    6  A    between atoms: C24_11  and  C33_20
REMARK    7  A    between atoms: C24_11  and  C34_21
REMARK    8  A    between atoms: C30_17  and  O7_56
REMARK    9  A    between atoms: C31_18  and  O8_23
REMARK   10  A    between atoms: C32_19  and  C35_22
REMARK   11  A    between atoms: O8_23  and  C39_24
REMARK   12  A    between atoms: C39_24  and  C41_26
REMARK   13  A    between atoms: C41_26  and  O12_27
REMARK   14  A    between atoms: C41_26  and  C44_29
REMARK   15  A    between atoms: C44_29  and  C48_30
REMARK   16  A    between atoms: C44_29  and  N15_36
REMARK   17  A    between atoms: C51_37  and  O13_40
REMARK   18  A    between atoms: O13_40  and  C55_41
REMARK   19  A    between atoms: C55_41  and  C56_42
REMARK   20  A    between atoms: C55_41  and  C57_43
REMARK   21  A    between atoms: C55_41  and  C58_44
REMARK   22  A    between atoms: O3_47  and  C37_48
REMARK   23  A    between atoms: C37_48  and  C40_50
REMARK   24  A    between atoms: O2_58  and  C36_59
REMARK   25  A    between atoms: C36_59  and  C38_60
REMARK                            x       y       z     vdW  Elec       q    Type
REMARK                         _______ _______ _______ _____ _____    ______ ____
ROOT
ATOM      1  O1  UNK     0      -3.930  -1.935  -2.995  0.00  0.00    +0.000 OA
ATOM      2  O6  UNK     0      -0.355  -3.703   0.408  0.00  0.00    +0.000 OA
ATOM      3  C16 UNK     0      -2.511  -1.281  -0.072  0.00  0.00    +0.000 C 
ATOM      4  C17 UNK     0      -2.894  -0.782  -1.536  0.00  0.00    +0.000 C 
ATOM      5  C18 UNK     0      -2.591  -2.895   0.146  0.00  0.00    +0.000 C 
ATOM      6  C19 UNK     0      -2.560  -1.683  -2.712  0.00  0.00    +0.000 C 
ATOM      7  C20 UNK     0      -3.174  -0.330   1.044  0.00  0.00    +0.000 C 
ATOM      8  C21 UNK     0      -2.294   0.297   2.231  0.00  0.00    +0.000 C 
ATOM      9  C22 UNK     0      -2.471  -3.716  -1.224  0.00  0.00    +0.000 C 
ATOM     10  C23 UNK     0      -1.763  -2.934  -2.340  0.00  0.00    +0.000 C 
ATOM     11  C24 UNK     0      -1.899  -0.700   3.384  0.00  0.00    +0.000 C 
ATOM     12  C25 UNK     0      -4.332  -1.058  -1.968  0.00  0.00    +0.000 C 
ATOM     13  C26 UNK     0      -1.369  -3.340   0.997  0.00  0.00    +0.000 C 
ATOM     14  C27 UNK     0      -1.005   0.988   1.621  0.00  0.00    +0.000 C 
ATOM     15  C28 UNK     0      -0.921  -1.712   2.773  0.00  0.00    +0.000 C 
ATOM     16  C29 UNK     0      -3.893  -3.413   0.825  0.00  0.00    +0.000 C 
ATOM     17  C30 UNK     0      -1.227  -3.184   2.497  0.00  0.00    +0.000 C 
ATOM     18  C31 UNK     0       0.351   0.196   1.733  0.00  0.00    +0.000 C 
ATOM     19  C32 UNK     0       0.249  -1.224   2.268  0.00  0.00    +0.000 C 
ATOM     20  C33 UNK     0      -1.142   0.001   4.571  0.00  0.00    +0.000 C 
ATOM     21  C34 UNK     0      -3.166  -1.286   4.072  0.00  0.00    +0.000 C 
ATOM     22  C35 UNK     0       1.533  -2.037   2.378  0.00  0.00    +0.000 C 
ENDROOT
BRANCH   8  23
ATOM     23  O4  UNK     0      -3.103   1.301   2.815  0.00  0.00    +0.000 OA
ATOM     24  H80 UNK     0      -2.563   1.858   3.444  0.00  0.00    +0.000 HD
ENDBRANCH   8  23
BRANCH  17  25
ATOM     25  O7  UNK     0      -2.335  -3.697   3.157  0.00  0.00    +0.000 OA
ATOM     26  H85 UNK     0      -2.284  -4.694   3.139  0.00  0.00    +0.000 HD
ENDBRANCH  17  25
BRANCH   9  27
ATOM     27  O5  UNK     0      -3.716  -4.188  -1.710  0.00  0.00    +0.000 OA
ATOM     28  H81 UNK     0      -3.542  -4.834  -2.456  0.00  0.00    +0.000 HD
ENDBRANCH   9  27
BRANCH  18  29
ATOM     29  O8  UNK     0       0.982   0.146   0.446  0.00  0.00    +0.000 OA
BRANCH  29  30
ATOM     30  C39 UNK     0       1.614   1.263  -0.110  0.00  0.00    +0.000 C 
ATOM     31  O11 UNK     0       1.850   2.278   0.595  0.00  0.00    +0.000 OA
BRANCH  30  32
ATOM     32  C41 UNK     0       1.947   1.268  -1.569  0.00  0.00    +0.000 C 
BRANCH  32  33
ATOM     33  O12 UNK     0       0.908   0.634  -2.252  0.00  0.00    +0.000 OA
ATOM     34  H95 UNK     0       0.258   1.333  -2.458  0.00  0.00    +0.000 HD
ENDBRANCH  32  33
BRANCH  32  35
ATOM     35  C44 UNK     0       3.298   0.601  -1.919  0.00  0.00    +0.000 C 
BRANCH  35  36
ATOM     36  C48 UNK     0       3.343  -0.865  -1.515  0.00  0.00    +0.000 A 
ATOM     37  C50 UNK     0       2.803  -1.838  -2.370  0.00  0.00    +0.000 A 
ATOM     38  C53 UNK     0       2.801  -3.184  -1.998  0.00  0.00    +0.000 A 
ATOM     39  C54 UNK     0       3.355  -3.575  -0.786  0.00  0.00    +0.000 A 
ATOM     40  C52 UNK     0       3.952  -2.626   0.045  0.00  0.00    +0.000 A 
ATOM     41  C49 UNK     0       3.916  -1.278  -0.298  0.00  0.00    +0.000 A 
ENDBRANCH  35  36
BRANCH  35  42
ATOM     42  N15 UNK     0       4.427   1.358  -1.341  0.00  0.00    +0.000 N 
ATOM     43  C51 UNK     0       5.762   1.244  -1.846  0.00  0.00    +0.000 C 
ATOM     44  O14 UNK     0       6.028   0.416  -2.781  0.00  0.00    +0.000 OA
ATOM     45  H97 UNK     0       4.256   2.086  -0.598  0.00  0.00    +0.000 HD
BRANCH  43  46
ATOM     46  O13 UNK     0       6.772   2.049  -1.305  0.00  0.00    +0.000 OA
BRANCH  46  47
ATOM     47  C55 UNK     0       8.133   2.131  -1.756  0.00  0.00    +0.000 C 
ATOM     48  C56 UNK     0       8.848   0.777  -1.615  0.00  0.00    +0.000 C 
ATOM     49  C57 UNK     0       8.170   2.635  -3.212  0.00  0.00    +0.000 C 
ATOM     50  C58 UNK     0       8.842   3.161  -0.861  0.00  0.00    +0.000 C 
ENDBRANCH  46  47
ENDBRANCH  43  46
ENDBRANCH  35  42
ENDBRANCH  32  35
ENDBRANCH  30  32
ENDBRANCH  29  30
ENDBRANCH  18  29
BRANCH   7  51
ATOM     51  O3  UNK     0      -3.767   0.808   0.383  0.00  0.00    +0.000 OA
BRANCH  51  52
ATOM     52  C37 UNK     0      -4.911   1.503   0.797  0.00  0.00    +0.000 C 
ATOM     53  O10 UNK     0      -5.879   0.894   1.327  0.00  0.00    +0.000 OA
BRANCH  52  54
ATOM     54  C40 UNK     0      -4.937   2.960   0.661  0.00  0.00    +0.000 A 
ATOM     55  C42 UNK     0      -6.108   3.681   0.954  0.00  0.00    +0.000 A 
ATOM     56  C45 UNK     0      -6.087   5.090   0.940  0.00  0.00    +0.000 A 
ATOM     57  C47 UNK     0      -4.926   5.778   0.597  0.00  0.00    +0.000 A 
ATOM     58  C46 UNK     0      -3.766   5.060   0.294  0.00  0.00    +0.000 A 
ATOM     59  C43 UNK     0      -3.760   3.659   0.326  0.00  0.00    +0.000 A 
ENDBRANCH  52  54
ENDBRANCH  51  52
ENDBRANCH   7  51
BRANCH   4  60
ATOM     60  O2  UNK     0      -2.467   0.584  -1.765  0.00  0.00    +0.000 OA
BRANCH  60  61
ATOM     61  C36 UNK     0      -2.606   1.303  -2.959  0.00  0.00    +0.000 C 
ATOM     62  C38 UNK     0      -3.593   2.414  -3.048  0.00  0.00    +0.000 C 
ATOM     63  O9  UNK     0      -1.734   1.186  -3.855  0.00  0.00    +0.000 OA
ENDBRANCH  60  61
ENDBRANCH   4  60
TORSDOF 17
