REMARK  Name = C:\Users\Maximilian\Desktop\Conformers\converted_pdb\conformers_pdb\Docetaxel_conf_76.pdb
REMARK  25 active torsions:
REMARK  status: ('A' for Active; 'I' for Inactive)
REMARK    1  A    between atoms: C17_4  and  O2_58
REMARK    2  A    between atoms: C18_5  and  C29_16
REMARK    3  A    between atoms: C20_7  and  O3_47
REMARK    4  A    between atoms: C21_8  and  O4_45
REMARK    5  A    between atoms: C22_9  and  O5_62
REMARK    6  A    between atoms: C24_11  and  C33_20
REMARK    7  A    between atoms: C24_11  and  C34_21
REMARK    8  A    between atoms: C30_17  and  O7_56
REMARK    9  A    between atoms: C31_18  and  O8_23
REMARK   10  A    between atoms: C32_19  and  C35_22
REMARK   11  A    between atoms: O8_23  and  C39_24
REMARK   12  A    between atoms: C39_24  and  C41_26
REMARK   13  A    between atoms: C41_26  and  O12_27
REMARK   14  A    between atoms: C41_26  and  C44_29
REMARK   15  A    between atoms: C44_29  and  C48_30
REMARK   16  A    between atoms: C44_29  and  N15_36
REMARK   17  A    between atoms: C51_37  and  O13_40
REMARK   18  A    between atoms: O13_40  and  C55_41
REMARK   19  A    between atoms: C55_41  and  C56_42
REMARK   20  A    between atoms: C55_41  and  C57_43
REMARK   21  A    between atoms: C55_41  and  C58_44
REMARK   22  A    between atoms: O3_47  and  C37_48
REMARK   23  A    between atoms: C37_48  and  C40_50
REMARK   24  A    between atoms: O2_58  and  C36_59
REMARK   25  A    between atoms: C36_59  and  C38_60
REMARK                            x       y       z     vdW  Elec       q    Type
REMARK                         _______ _______ _______ _____ _____    ______ ____
ROOT
ATOM      1  O1  UNK     0      -4.543  -0.305   2.736  0.00  0.00    +0.000 OA
ATOM      2  O6  UNK     0      -4.642   3.210  -2.050  0.00  0.00    +0.000 OA
ATOM      3  C16 UNK     0      -3.069   0.445  -0.189  0.00  0.00    +0.000 C 
ATOM      4  C17 UNK     0      -3.039  -0.239   1.235  0.00  0.00    +0.000 C 
ATOM      5  C18 UNK     0      -3.955   1.770  -0.264  0.00  0.00    +0.000 C 
ATOM      6  C19 UNK     0      -3.471   0.573   2.464  0.00  0.00    +0.000 C 
ATOM      7  C20 UNK     0      -3.227  -0.605  -1.385  0.00  0.00    +0.000 C 
ATOM      8  C21 UNK     0      -2.125  -0.611  -2.546  0.00  0.00    +0.000 C 
ATOM      9  C22 UNK     0      -3.584   2.659   0.960  0.00  0.00    +0.000 C 
ATOM     10  C23 UNK     0      -3.978   2.016   2.292  0.00  0.00    +0.000 C 
ATOM     11  C24 UNK     0      -2.054   0.726  -3.377  0.00  0.00    +0.000 C 
ATOM     12  C25 UNK     0      -4.229  -1.107   1.622  0.00  0.00    +0.000 C 
ATOM     13  C26 UNK     0      -3.691   2.637  -1.522  0.00  0.00    +0.000 C 
ATOM     14  C27 UNK     0      -0.702  -0.961  -1.943  0.00  0.00    +0.000 C 
ATOM     15  C28 UNK     0      -1.482   1.800  -2.419  0.00  0.00    +0.000 C 
ATOM     16  C29 UNK     0      -5.485   1.439  -0.230  0.00  0.00    +0.000 C 
ATOM     17  C30 UNK     0      -2.306   3.019  -2.026  0.00  0.00    +0.000 C 
ATOM     18  C31 UNK     0       0.362   0.171  -1.989  0.00  0.00    +0.000 C 
ATOM     19  C32 UNK     0      -0.278   1.542  -1.802  0.00  0.00    +0.000 C 
ATOM     20  C33 UNK     0      -1.089   0.581  -4.613  0.00  0.00    +0.000 C 
ATOM     21  C34 UNK     0      -3.444   1.058  -4.021  0.00  0.00    +0.000 C 
ATOM     22  C35 UNK     0       0.409   2.567  -0.913  0.00  0.00    +0.000 C 
ENDROOT
BRANCH   8  23
ATOM     23  O4  UNK     0      -2.493  -1.617  -3.470  0.00  0.00    +0.000 OA
ATOM     24  H80 UNK     0      -2.293  -2.511  -3.085  0.00  0.00    +0.000 HD
ENDBRANCH   8  23
BRANCH  17  25
ATOM     25  O7  UNK     0      -2.392   3.861  -3.148  0.00  0.00    +0.000 OA
ATOM     26  H85 UNK     0      -2.609   4.773  -2.817  0.00  0.00    +0.000 HD
ENDBRANCH  17  25
BRANCH   9  27
ATOM     27  O5  UNK     0      -4.204   3.921   0.863  0.00  0.00    +0.000 OA
ATOM     28  H81 UNK     0      -3.673   4.548   1.422  0.00  0.00    +0.000 HD
ENDBRANCH   9  27
BRANCH  18  29
ATOM     29  O8  UNK     0       1.368  -0.081  -1.002  0.00  0.00    +0.000 OA
BRANCH  29  30
ATOM     30  C39 UNK     0       2.403  -1.008  -1.187  0.00  0.00    +0.000 C 
ATOM     31  O11 UNK     0       2.382  -1.813  -2.158  0.00  0.00    +0.000 OA
BRANCH  30  32
ATOM     32  C41 UNK     0       3.571  -1.027  -0.236  0.00  0.00    +0.000 C 
BRANCH  32  33
ATOM     33  O12 UNK     0       3.135  -1.420   1.038  0.00  0.00    +0.000 OA
ATOM     34  H95 UNK     0       2.574  -0.687   1.394  0.00  0.00    +0.000 HD
ENDBRANCH  32  33
BRANCH  32  35
ATOM     35  C44 UNK     0       4.290   0.349  -0.191  0.00  0.00    +0.000 C 
BRANCH  35  36
ATOM     36  C48 UNK     0       4.727   0.815  -1.570  0.00  0.00    +0.000 A 
ATOM     37  C50 UNK     0       4.256   2.041  -2.077  0.00  0.00    +0.000 A 
ATOM     38  C53 UNK     0       4.623   2.467  -3.357  0.00  0.00    +0.000 A 
ATOM     39  C54 UNK     0       5.459   1.675  -4.146  0.00  0.00    +0.000 A 
ATOM     40  C52 UNK     0       5.945   0.462  -3.649  0.00  0.00    +0.000 A 
ATOM     41  C49 UNK     0       5.588   0.035  -2.366  0.00  0.00    +0.000 A 
ENDBRANCH  35  36
BRANCH  35  42
ATOM     42  N15 UNK     0       5.453   0.288   0.699  0.00  0.00    +0.000 N 
ATOM     43  C51 UNK     0       5.387   0.612   2.093  0.00  0.00    +0.000 C 
ATOM     44  O14 UNK     0       4.313   1.039   2.595  0.00  0.00    +0.000 OA
ATOM     45  H97 UNK     0       6.342  -0.130   0.343  0.00  0.00    +0.000 HD
BRANCH  43  46
ATOM     46  O13 UNK     0       6.535   0.458   2.883  0.00  0.00    +0.000 OA
BRANCH  46  47
ATOM     47  C55 UNK     0       6.640   0.694   4.297  0.00  0.00    +0.000 C 
ATOM     48  C56 UNK     0       8.093   0.393   4.696  0.00  0.00    +0.000 C 
ATOM     49  C57 UNK     0       6.324   2.164   4.636  0.00  0.00    +0.000 C 
ATOM     50  C58 UNK     0       5.706  -0.252   5.075  0.00  0.00    +0.000 C 
ENDBRANCH  46  47
ENDBRANCH  43  46
ENDBRANCH  35  42
ENDBRANCH  32  35
ENDBRANCH  30  32
ENDBRANCH  29  30
ENDBRANCH  18  29
BRANCH   7  51
ATOM     51  O3  UNK     0      -3.276  -1.933  -0.845  0.00  0.00    +0.000 OA
BRANCH  51  52
ATOM     52  C37 UNK     0      -4.208  -2.918  -1.212  0.00  0.00    +0.000 C 
ATOM     53  O10 UNK     0      -5.098  -2.666  -2.069  0.00  0.00    +0.000 OA
BRANCH  52  54
ATOM     54  C40 UNK     0      -4.159  -4.239  -0.549  0.00  0.00    +0.000 A 
ATOM     55  C42 UNK     0      -5.139  -5.212  -0.813  0.00  0.00    +0.000 A 
ATOM     56  C45 UNK     0      -5.080  -6.463  -0.191  0.00  0.00    +0.000 A 
ATOM     57  C47 UNK     0      -4.047  -6.750   0.710  0.00  0.00    +0.000 A 
ATOM     58  C46 UNK     0      -3.063  -5.797   0.966  0.00  0.00    +0.000 A 
ATOM     59  C43 UNK     0      -3.121  -4.543   0.350  0.00  0.00    +0.000 A 
ENDBRANCH  52  54
ENDBRANCH  51  52
ENDBRANCH   7  51
BRANCH   4  60
ATOM     60  O2  UNK     0      -1.762  -0.880   1.441  0.00  0.00    +0.000 OA
BRANCH  60  61
ATOM     61  C36 UNK     0      -1.293  -1.492   2.615  0.00  0.00    +0.000 C 
ATOM     62  C38 UNK     0       0.069  -1.165   3.111  0.00  0.00    +0.000 C 
ATOM     63  O9  UNK     0      -2.022  -2.264   3.288  0.00  0.00    +0.000 OA
ENDBRANCH  60  61
ENDBRANCH   4  60
TORSDOF 17
