REMARK  Name = C:\Users\Maximilian\Desktop\Conformers\converted_pdb\conformers_pdb\Docetaxel_conf_35.pdb
REMARK  25 active torsions:
REMARK  status: ('A' for Active; 'I' for Inactive)
REMARK    1  A    between atoms: C17_4  and  O2_58
REMARK    2  A    between atoms: C18_5  and  C29_16
REMARK    3  A    between atoms: C20_7  and  O3_47
REMARK    4  A    between atoms: C21_8  and  O4_45
REMARK    5  A    between atoms: C22_9  and  O5_62
REMARK    6  A    between atoms: C24_11  and  C33_20
REMARK    7  A    between atoms: C24_11  and  C34_21
REMARK    8  A    between atoms: C30_17  and  O7_56
REMARK    9  A    between atoms: C31_18  and  O8_23
REMARK   10  A    between atoms: C32_19  and  C35_22
REMARK   11  A    between atoms: O8_23  and  C39_24
REMARK   12  A    between atoms: C39_24  and  C41_26
REMARK   13  A    between atoms: C41_26  and  O12_27
REMARK   14  A    between atoms: C41_26  and  C44_29
REMARK   15  A    between atoms: C44_29  and  C48_30
REMARK   16  A    between atoms: C44_29  and  N15_36
REMARK   17  A    between atoms: C51_37  and  O13_40
REMARK   18  A    between atoms: O13_40  and  C55_41
REMARK   19  A    between atoms: C55_41  and  C56_42
REMARK   20  A    between atoms: C55_41  and  C57_43
REMARK   21  A    between atoms: C55_41  and  C58_44
REMARK   22  A    between atoms: O3_47  and  C37_48
REMARK   23  A    between atoms: C37_48  and  C40_50
REMARK   24  A    between atoms: O2_58  and  C36_59
REMARK   25  A    between atoms: C36_59  and  C38_60
REMARK                            x       y       z     vdW  Elec       q    Type
REMARK                         _______ _______ _______ _____ _____    ______ ____
ROOT
ATOM      1  O1  UNK     0      -5.259   1.928  -2.963  0.00  0.00    +0.000 OA
ATOM      2  O6  UNK     0      -0.613  -1.302  -3.018  0.00  0.00    +0.000 OA
ATOM      3  C16 UNK     0      -2.940   0.227  -1.396  0.00  0.00    +0.000 C 
ATOM      4  C17 UNK     0      -3.917   1.493  -1.364  0.00  0.00    +0.000 C 
ATOM      5  C18 UNK     0      -2.833  -0.439  -2.884  0.00  0.00    +0.000 C 
ATOM      6  C19 UNK     0      -3.948   2.324  -2.633  0.00  0.00    +0.000 C 
ATOM      7  C20 UNK     0      -3.063  -0.556   0.026  0.00  0.00    +0.000 C 
ATOM      8  C21 UNK     0      -2.280  -1.903   0.439  0.00  0.00    +0.000 C 
ATOM      9  C22 UNK     0      -2.239   0.691  -3.824  0.00  0.00    +0.000 C 
ATOM     10  C23 UNK     0      -2.922   2.077  -3.754  0.00  0.00    +0.000 C 
ATOM     11  C24 UNK     0      -2.739  -3.252  -0.280  0.00  0.00    +0.000 C 
ATOM     12  C25 UNK     0      -5.383   1.244  -1.732  0.00  0.00    +0.000 C 
ATOM     13  C26 UNK     0      -1.798  -1.594  -2.920  0.00  0.00    +0.000 C 
ATOM     14  C27 UNK     0      -0.735  -1.624   0.307  0.00  0.00    +0.000 C 
ATOM     15  C28 UNK     0      -1.763  -3.535  -1.431  0.00  0.00    +0.000 C 
ATOM     16  C29 UNK     0      -4.144  -0.878  -3.619  0.00  0.00    +0.000 C 
ATOM     17  C30 UNK     0      -2.082  -3.098  -2.851  0.00  0.00    +0.000 C 
ATOM     18  C31 UNK     0       0.092  -2.914   0.112  0.00  0.00    +0.000 C 
ATOM     19  C32 UNK     0      -0.439  -3.659  -1.108  0.00  0.00    +0.000 C 
ATOM     20  C33 UNK     0      -2.685  -4.520   0.640  0.00  0.00    +0.000 C 
ATOM     21  C34 UNK     0      -4.237  -3.200  -0.656  0.00  0.00    +0.000 C 
ATOM     22  C35 UNK     0       0.556  -4.293  -2.058  0.00  0.00    +0.000 C 
ENDROOT
BRANCH   8  23
ATOM     23  O4  UNK     0      -2.553  -2.088   1.820  0.00  0.00    +0.000 OA
ATOM     24  H80 UNK     0      -1.858  -2.654   2.240  0.00  0.00    +0.000 HD
ENDBRANCH   8  23
BRANCH  17  25
ATOM     25  O7  UNK     0      -3.375  -3.475  -3.249  0.00  0.00    +0.000 OA
ATOM     26  H85 UNK     0      -3.378  -4.461  -3.346  0.00  0.00    +0.000 HD
ENDBRANCH  17  25
BRANCH   9  27
ATOM     27  O5  UNK     0      -2.197   0.293  -5.174  0.00  0.00    +0.000 OA
ATOM     28  H81 UNK     0      -1.489  -0.403  -5.286  0.00  0.00    +0.000 HD
ENDBRANCH   9  27
BRANCH  18  29
ATOM     29  O8  UNK     0       1.466  -2.563  -0.070  0.00  0.00    +0.000 OA
BRANCH  29  30
ATOM     30  C39 UNK     0       2.290  -2.109   0.962  0.00  0.00    +0.000 C 
ATOM     31  O11 UNK     0       1.859  -2.039   2.146  0.00  0.00    +0.000 OA
BRANCH  30  32
ATOM     32  C41 UNK     0       3.690  -1.662   0.652  0.00  0.00    +0.000 C 
BRANCH  32  33
ATOM     33  O12 UNK     0       4.579  -2.178   1.606  0.00  0.00    +0.000 OA
ATOM     34  H95 UNK     0       4.645  -3.160   1.444  0.00  0.00    +0.000 HD
ENDBRANCH  32  33
BRANCH  32  35
ATOM     35  C44 UNK     0       3.783  -0.118   0.658  0.00  0.00    +0.000 C 
BRANCH  35  36
ATOM     36  C48 UNK     0       2.839   0.519  -0.350  0.00  0.00    +0.000 A 
ATOM     37  C50 UNK     0       1.812   1.378   0.096  0.00  0.00    +0.000 A 
ATOM     38  C53 UNK     0       0.968   2.007  -0.821  0.00  0.00    +0.000 A 
ATOM     39  C54 UNK     0       1.145   1.797  -2.190  0.00  0.00    +0.000 A 
ATOM     40  C52 UNK     0       2.129   0.914  -2.642  0.00  0.00    +0.000 A 
ATOM     41  C49 UNK     0       2.976   0.280  -1.727  0.00  0.00    +0.000 A 
ENDBRANCH  35  36
BRANCH  35  42
ATOM     42  N15 UNK     0       5.159   0.291   0.362  0.00  0.00    +0.000 N 
ATOM     43  C51 UNK     0       6.014   0.933   1.319  0.00  0.00    +0.000 C 
ATOM     44  O14 UNK     0       5.550   1.337   2.418  0.00  0.00    +0.000 OA
ATOM     45  H97 UNK     0       5.583   0.025  -0.551  0.00  0.00    +0.000 HD
BRANCH  43  46
ATOM     46  O13 UNK     0       7.366   1.122   1.002  0.00  0.00    +0.000 OA
BRANCH  46  47
ATOM     47  C55 UNK     0       8.372   1.683   1.861  0.00  0.00    +0.000 C 
ATOM     48  C56 UNK     0       8.507   0.868   3.162  0.00  0.00    +0.000 C 
ATOM     49  C57 UNK     0       9.711   1.622   1.104  0.00  0.00    +0.000 C 
ATOM     50  C58 UNK     0       8.054   3.160   2.170  0.00  0.00    +0.000 C 
ENDBRANCH  46  47
ENDBRANCH  43  46
ENDBRANCH  35  42
ENDBRANCH  32  35
ENDBRANCH  30  32
ENDBRANCH  29  30
ENDBRANCH  18  29
BRANCH   7  51
ATOM     51  O3  UNK     0      -2.645   0.410   1.008  0.00  0.00    +0.000 OA
BRANCH  51  52
ATOM     52  C37 UNK     0      -3.104   0.504   2.335  0.00  0.00    +0.000 C 
ATOM     53  O10 UNK     0      -4.110  -0.150   2.717  0.00  0.00    +0.000 OA
BRANCH  52  54
ATOM     54  C40 UNK     0      -2.421   1.416   3.278  0.00  0.00    +0.000 A 
ATOM     55  C42 UNK     0      -2.803   1.467   4.631  0.00  0.00    +0.000 A 
ATOM     56  C45 UNK     0      -2.198   2.382   5.508  0.00  0.00    +0.000 A 
ATOM     57  C47 UNK     0      -1.215   3.254   5.039  0.00  0.00    +0.000 A 
ATOM     58  C46 UNK     0      -0.811   3.196   3.703  0.00  0.00    +0.000 A 
ATOM     59  C43 UNK     0      -1.402   2.278   2.827  0.00  0.00    +0.000 A 
ENDBRANCH  52  54
ENDBRANCH  51  52
ENDBRANCH   7  51
BRANCH   4  60
ATOM     60  O2  UNK     0      -3.710   2.403  -0.260  0.00  0.00    +0.000 OA
BRANCH  60  61
ATOM     61  C36 UNK     0      -4.591   2.619   0.816  0.00  0.00    +0.000 C 
ATOM     62  C38 UNK     0      -4.413   3.836   1.668  0.00  0.00    +0.000 C 
ATOM     63  O9  UNK     0      -5.505   1.792   1.098  0.00  0.00    +0.000 OA
ENDBRANCH  60  61
ENDBRANCH   4  60
TORSDOF 17
