REMARK  Name = C:\Users\Maximilian\Desktop\Conformers\converted_pdb\conformers_pdb\Docetaxel_conf_52.pdb
REMARK  25 active torsions:
REMARK  status: ('A' for Active; 'I' for Inactive)
REMARK    1  A    between atoms: C17_4  and  O2_58
REMARK    2  A    between atoms: C18_5  and  C29_16
REMARK    3  A    between atoms: C20_7  and  O3_47
REMARK    4  A    between atoms: C21_8  and  O4_45
REMARK    5  A    between atoms: C22_9  and  O5_62
REMARK    6  A    between atoms: C24_11  and  C33_20
REMARK    7  A    between atoms: C24_11  and  C34_21
REMARK    8  A    between atoms: C30_17  and  O7_56
REMARK    9  A    between atoms: C31_18  and  O8_23
REMARK   10  A    between atoms: C32_19  and  C35_22
REMARK   11  A    between atoms: O8_23  and  C39_24
REMARK   12  A    between atoms: C39_24  and  C41_26
REMARK   13  A    between atoms: C41_26  and  O12_27
REMARK   14  A    between atoms: C41_26  and  C44_29
REMARK   15  A    between atoms: C44_29  and  C48_30
REMARK   16  A    between atoms: C44_29  and  N15_36
REMARK   17  A    between atoms: C51_37  and  O13_40
REMARK   18  A    between atoms: O13_40  and  C55_41
REMARK   19  A    between atoms: C55_41  and  C56_42
REMARK   20  A    between atoms: C55_41  and  C57_43
REMARK   21  A    between atoms: C55_41  and  C58_44
REMARK   22  A    between atoms: O3_47  and  C37_48
REMARK   23  A    between atoms: C37_48  and  C40_50
REMARK   24  A    between atoms: O2_58  and  C36_59
REMARK   25  A    between atoms: C36_59  and  C38_60
REMARK                            x       y       z     vdW  Elec       q    Type
REMARK                         _______ _______ _______ _____ _____    ______ ____
ROOT
ATOM      1  O1  UNK     0      -5.917  -1.513   0.883  0.00  0.00    +0.000 OA
ATOM      2  O6  UNK     0      -0.867  -0.059   3.487  0.00  0.00    +0.000 OA
ATOM      3  C16 UNK     0      -2.971   0.168   0.881  0.00  0.00    +0.000 C 
ATOM      4  C17 UNK     0      -3.970  -0.906   0.257  0.00  0.00    +0.000 C 
ATOM      5  C18 UNK     0      -3.024   0.180   2.484  0.00  0.00    +0.000 C 
ATOM      6  C19 UNK     0      -4.623  -2.018   1.078  0.00  0.00    +0.000 C 
ATOM      7  C20 UNK     0      -3.083   1.543   0.035  0.00  0.00    +0.000 C 
ATOM      8  C21 UNK     0      -1.806   2.447  -0.318  0.00  0.00    +0.000 C 
ATOM      9  C22 UNK     0      -3.096  -1.322   2.989  0.00  0.00    +0.000 C 
ATOM     10  C23 UNK     0      -4.337  -2.095   2.570  0.00  0.00    +0.000 C 
ATOM     11  C24 UNK     0      -1.368   3.434   0.829  0.00  0.00    +0.000 C 
ATOM     12  C25 UNK     0      -5.419  -0.442   0.132  0.00  0.00    +0.000 C 
ATOM     13  C26 UNK     0      -1.710   0.735   3.108  0.00  0.00    +0.000 C 
ATOM     14  C27 UNK     0      -0.607   1.543  -0.821  0.00  0.00    +0.000 C 
ATOM     15  C28 UNK     0      -0.675   2.592   1.896  0.00  0.00    +0.000 C 
ATOM     16  C29 UNK     0      -4.254   0.941   3.043  0.00  0.00    +0.000 C 
ATOM     17  C30 UNK     0      -1.298   2.185   3.224  0.00  0.00    +0.000 C 
ATOM     18  C31 UNK     0       0.657   1.470   0.085  0.00  0.00    +0.000 C 
ATOM     19  C32 UNK     0       0.447   1.916   1.516  0.00  0.00    +0.000 C 
ATOM     20  C33 UNK     0      -0.328   4.501   0.328  0.00  0.00    +0.000 C 
ATOM     21  C34 UNK     0      -2.547   4.326   1.322  0.00  0.00    +0.000 C 
ATOM     22  C35 UNK     0       1.556   1.611   2.506  0.00  0.00    +0.000 C 
ENDROOT
BRANCH   8  23
ATOM     23  O4  UNK     0      -2.222   3.257  -1.406  0.00  0.00    +0.000 OA
ATOM     24  H80 UNK     0      -1.442   3.715  -1.818  0.00  0.00    +0.000 HD
ENDBRANCH   8  23
BRANCH  17  25
ATOM     25  O7  UNK     0      -2.348   2.998   3.651  0.00  0.00    +0.000 OA
ATOM     26  H85 UNK     0      -2.514   2.775   4.611  0.00  0.00    +0.000 HD
ENDBRANCH  17  25
BRANCH   9  27
ATOM     27  O5  UNK     0      -2.933  -1.421   4.386  0.00  0.00    +0.000 OA
ATOM     28  H81 UNK     0      -3.770  -1.095   4.822  0.00  0.00    +0.000 HD
ENDBRANCH   9  27
BRANCH  18  29
ATOM     29  O8  UNK     0       1.163   0.131   0.099  0.00  0.00    +0.000 OA
BRANCH  29  30
ATOM     30  C39 UNK     0       1.999  -0.392  -0.903  0.00  0.00    +0.000 C 
ATOM     31  O11 UNK     0       2.392   0.338  -1.853  0.00  0.00    +0.000 OA
BRANCH  30  32
ATOM     32  C41 UNK     0       2.402  -1.847  -0.880  0.00  0.00    +0.000 C 
BRANCH  32  33
ATOM     33  O12 UNK     0       1.458  -2.584  -0.153  0.00  0.00    +0.000 OA
ATOM     34  H95 UNK     0       1.563  -3.540  -0.403  0.00  0.00    +0.000 HD
ENDBRANCH  32  33
BRANCH  32  35
ATOM     35  C44 UNK     0       3.817  -2.102  -0.304  0.00  0.00    +0.000 C 
BRANCH  35  36
ATOM     36  C48 UNK     0       3.925  -1.771   1.177  0.00  0.00    +0.000 A 
ATOM     37  C50 UNK     0       4.306  -0.492   1.630  0.00  0.00    +0.000 A 
ATOM     38  C53 UNK     0       4.439  -0.234   2.998  0.00  0.00    +0.000 A 
ATOM     39  C54 UNK     0       4.155  -1.232   3.928  0.00  0.00    +0.000 A 
ATOM     40  C52 UNK     0       3.752  -2.499   3.495  0.00  0.00    +0.000 A 
ATOM     41  C49 UNK     0       3.639  -2.769   2.129  0.00  0.00    +0.000 A 
ENDBRANCH  35  36
BRANCH  35  42
ATOM     42  N15 UNK     0       4.846  -1.402  -1.085  0.00  0.00    +0.000 N 
ATOM     43  C51 UNK     0       6.049  -2.061  -1.509  0.00  0.00    +0.000 C 
ATOM     44  O14 UNK     0       6.068  -3.314  -1.646  0.00  0.00    +0.000 OA
ATOM     45  H97 UNK     0       4.804  -0.367  -1.195  0.00  0.00    +0.000 HD
BRANCH  43  46
ATOM     46  O13 UNK     0       7.190  -1.290  -1.780  0.00  0.00    +0.000 OA
BRANCH  46  47
ATOM     47  C55 UNK     0       8.431  -1.774  -2.316  0.00  0.00    +0.000 C 
ATOM     48  C56 UNK     0       9.046  -2.860  -1.411  0.00  0.00    +0.000 C 
ATOM     49  C57 UNK     0       8.223  -2.315  -3.743  0.00  0.00    +0.000 C 
ATOM     50  C58 UNK     0       9.397  -0.578  -2.374  0.00  0.00    +0.000 C 
ENDBRANCH  46  47
ENDBRANCH  43  46
ENDBRANCH  35  42
ENDBRANCH  32  35
ENDBRANCH  30  32
ENDBRANCH  29  30
ENDBRANCH  18  29
BRANCH   7  51
ATOM     51  O3  UNK     0      -3.703   1.249  -1.232  0.00  0.00    +0.000 OA
BRANCH  51  52
ATOM     52  C37 UNK     0      -4.719   2.019  -1.831  0.00  0.00    +0.000 C 
ATOM     53  O10 UNK     0      -5.064   3.120  -1.324  0.00  0.00    +0.000 OA
BRANCH  52  54
ATOM     54  C40 UNK     0      -5.413   1.518  -3.040  0.00  0.00    +0.000 A 
ATOM     55  C42 UNK     0      -4.982   0.334  -3.665  0.00  0.00    +0.000 A 
ATOM     56  C45 UNK     0      -5.671  -0.171  -4.772  0.00  0.00    +0.000 A 
ATOM     57  C47 UNK     0      -6.794   0.495  -5.269  0.00  0.00    +0.000 A 
ATOM     58  C46 UNK     0      -7.226   1.680  -4.668  0.00  0.00    +0.000 A 
ATOM     59  C43 UNK     0      -6.540   2.196  -3.559  0.00  0.00    +0.000 A 
ENDBRANCH  52  54
ENDBRANCH  51  52
ENDBRANCH   7  51
BRANCH   4  60
ATOM     60  O2  UNK     0      -3.519  -1.402  -1.014  0.00  0.00    +0.000 OA
BRANCH  60  61
ATOM     61  C36 UNK     0      -2.420  -2.247  -1.253  0.00  0.00    +0.000 C 
ATOM     62  C38 UNK     0      -1.631  -2.884  -0.153  0.00  0.00    +0.000 C 
ATOM     63  O9  UNK     0      -2.108  -2.512  -2.441  0.00  0.00    +0.000 OA
ENDBRANCH  60  61
ENDBRANCH   4  60
TORSDOF 17
