REMARK  Name = C:\Users\Maximilian\Desktop\Conformers\converted_pdb\conformers_pdb\Docetaxel_conf_80.pdb
REMARK  25 active torsions:
REMARK  status: ('A' for Active; 'I' for Inactive)
REMARK    1  A    between atoms: C17_4  and  O2_58
REMARK    2  A    between atoms: C18_5  and  C29_16
REMARK    3  A    between atoms: C20_7  and  O3_47
REMARK    4  A    between atoms: C21_8  and  O4_45
REMARK    5  A    between atoms: C22_9  and  O5_62
REMARK    6  A    between atoms: C24_11  and  C33_20
REMARK    7  A    between atoms: C24_11  and  C34_21
REMARK    8  A    between atoms: C30_17  and  O7_56
REMARK    9  A    between atoms: C31_18  and  O8_23
REMARK   10  A    between atoms: C32_19  and  C35_22
REMARK   11  A    between atoms: O8_23  and  C39_24
REMARK   12  A    between atoms: C39_24  and  C41_26
REMARK   13  A    between atoms: C41_26  and  O12_27
REMARK   14  A    between atoms: C41_26  and  C44_29
REMARK   15  A    between atoms: C44_29  and  C48_30
REMARK   16  A    between atoms: C44_29  and  N15_36
REMARK   17  A    between atoms: C51_37  and  O13_40
REMARK   18  A    between atoms: O13_40  and  C55_41
REMARK   19  A    between atoms: C55_41  and  C56_42
REMARK   20  A    between atoms: C55_41  and  C57_43
REMARK   21  A    between atoms: C55_41  and  C58_44
REMARK   22  A    between atoms: O3_47  and  C37_48
REMARK   23  A    between atoms: C37_48  and  C40_50
REMARK   24  A    between atoms: O2_58  and  C36_59
REMARK   25  A    between atoms: C36_59  and  C38_60
REMARK                            x       y       z     vdW  Elec       q    Type
REMARK                         _______ _______ _______ _____ _____    ______ ____
ROOT
ATOM      1  O1  UNK     0      -4.130  -1.079  -3.179  0.00  0.00    +0.000 OA
ATOM      2  O6  UNK     0      -0.717  -4.054   0.816  0.00  0.00    +0.000 OA
ATOM      3  C16 UNK     0      -2.513  -1.079  -0.098  0.00  0.00    +0.000 C 
ATOM      4  C17 UNK     0      -2.787  -0.583  -1.594  0.00  0.00    +0.000 C 
ATOM      5  C18 UNK     0      -2.587  -2.687   0.117  0.00  0.00    +0.000 C 
ATOM      6  C19 UNK     0      -2.870  -1.557  -2.775  0.00  0.00    +0.000 C 
ATOM      7  C20 UNK     0      -3.256  -0.086   0.950  0.00  0.00    +0.000 C 
ATOM      8  C21 UNK     0      -2.435   0.603   2.138  0.00  0.00    +0.000 C 
ATOM      9  C22 UNK     0      -2.189  -3.412  -1.241  0.00  0.00    +0.000 C 
ATOM     10  C23 UNK     0      -3.036  -3.027  -2.436  0.00  0.00    +0.000 C 
ATOM     11  C24 UNK     0      -2.129  -0.357   3.329  0.00  0.00    +0.000 C 
ATOM     12  C25 UNK     0      -4.228  -0.295  -2.019  0.00  0.00    +0.000 C 
ATOM     13  C26 UNK     0      -1.559  -3.240   1.173  0.00  0.00    +0.000 C 
ATOM     14  C27 UNK     0      -1.116   1.269   1.597  0.00  0.00    +0.000 C 
ATOM     15  C28 UNK     0      -1.148  -1.409   2.798  0.00  0.00    +0.000 C 
ATOM     16  C29 UNK     0      -4.015  -3.127   0.529  0.00  0.00    +0.000 C 
ATOM     17  C30 UNK     0      -1.483  -2.890   2.645  0.00  0.00    +0.000 C 
ATOM     18  C31 UNK     0       0.210   0.482   1.798  0.00  0.00    +0.000 C 
ATOM     19  C32 UNK     0       0.031  -0.961   2.251  0.00  0.00    +0.000 C 
ATOM     20  C33 UNK     0      -1.443   0.394   4.517  0.00  0.00    +0.000 C 
ATOM     21  C34 UNK     0      -3.448  -0.889   3.969  0.00  0.00    +0.000 C 
ATOM     22  C35 UNK     0       1.236  -1.867   2.076  0.00  0.00    +0.000 C 
ENDROOT
BRANCH   8  23
ATOM     23  O4  UNK     0      -3.247   1.628   2.686  0.00  0.00    +0.000 OA
ATOM     24  H80 UNK     0      -3.218   2.431   2.103  0.00  0.00    +0.000 HD
ENDBRANCH   8  23
BRANCH  17  25
ATOM     25  O7  UNK     0      -2.645  -3.331   3.289  0.00  0.00    +0.000 OA
ATOM     26  H85 UNK     0      -2.391  -3.613   4.208  0.00  0.00    +0.000 HD
ENDBRANCH  17  25
BRANCH   9  27
ATOM     27  O5  UNK     0      -2.168  -4.820  -1.124  0.00  0.00    +0.000 OA
ATOM     28  H81 UNK     0      -3.103  -5.157  -1.150  0.00  0.00    +0.000 HD
ENDBRANCH   9  27
BRANCH  18  29
ATOM     29  O8  UNK     0       0.966   0.496   0.583  0.00  0.00    +0.000 OA
BRANCH  29  30
ATOM     30  C39 UNK     0       1.614   1.633   0.097  0.00  0.00    +0.000 C 
ATOM     31  O11 UNK     0       1.324   2.776   0.544  0.00  0.00    +0.000 OA
BRANCH  30  32
ATOM     32  C41 UNK     0       2.706   1.489  -0.929  0.00  0.00    +0.000 C 
BRANCH  32  33
ATOM     33  O12 UNK     0       2.200   0.799  -2.043  0.00  0.00    +0.000 OA
ATOM     34  H95 UNK     0       1.725   1.466  -2.606  0.00  0.00    +0.000 HD
ENDBRANCH  32  33
BRANCH  32  35
ATOM     35  C44 UNK     0       3.905   0.704  -0.352  0.00  0.00    +0.000 C 
BRANCH  35  36
ATOM     36  C48 UNK     0       4.383   1.219   0.996  0.00  0.00    +0.000 A 
ATOM     37  C50 UNK     0       4.641   0.313   2.040  0.00  0.00    +0.000 A 
ATOM     38  C53 UNK     0       5.099   0.765   3.281  0.00  0.00    +0.000 A 
ATOM     39  C54 UNK     0       5.309   2.128   3.493  0.00  0.00    +0.000 A 
ATOM     40  C52 UNK     0       5.071   3.042   2.459  0.00  0.00    +0.000 A 
ATOM     41  C49 UNK     0       4.623   2.591   1.213  0.00  0.00    +0.000 A 
ENDBRANCH  35  36
BRANCH  35  42
ATOM     42  N15 UNK     0       5.022   0.746  -1.298  0.00  0.00    +0.000 N 
ATOM     43  C51 UNK     0       5.517  -0.411  -1.982  0.00  0.00    +0.000 C 
ATOM     44  O14 UNK     0       4.862  -1.491  -1.969  0.00  0.00    +0.000 OA
ATOM     45  H97 UNK     0       5.518   1.654  -1.451  0.00  0.00    +0.000 HD
BRANCH  43  46
ATOM     46  O13 UNK     0       6.734  -0.312  -2.668  0.00  0.00    +0.000 OA
BRANCH  46  47
ATOM     47  C55 UNK     0       7.407  -1.384  -3.347  0.00  0.00    +0.000 C 
ATOM     48  C56 UNK     0       7.730  -2.531  -2.370  0.00  0.00    +0.000 C 
ATOM     49  C57 UNK     0       6.559  -1.901  -4.523  0.00  0.00    +0.000 C 
ATOM     50  C58 UNK     0       8.726  -0.817  -3.898  0.00  0.00    +0.000 C 
ENDBRANCH  46  47
ENDBRANCH  43  46
ENDBRANCH  35  42
ENDBRANCH  32  35
ENDBRANCH  30  32
ENDBRANCH  29  30
ENDBRANCH  18  29
BRANCH   7  51
ATOM     51  O3  UNK     0      -3.845   1.011   0.239  0.00  0.00    +0.000 OA
BRANCH  51  52
ATOM     52  C37 UNK     0      -5.123   1.540   0.473  0.00  0.00    +0.000 C 
ATOM     53  O10 UNK     0      -5.923   0.960   1.257  0.00  0.00    +0.000 OA
BRANCH  52  54
ATOM     54  C40 UNK     0      -5.518   2.793  -0.208  0.00  0.00    +0.000 A 
ATOM     55  C42 UNK     0      -4.577   3.506  -0.976  0.00  0.00    +0.000 A 
ATOM     56  C45 UNK     0      -4.935   4.702  -1.604  0.00  0.00    +0.000 A 
ATOM     57  C47 UNK     0      -6.239   5.191  -1.482  0.00  0.00    +0.000 A 
ATOM     58  C46 UNK     0      -7.178   4.498  -0.717  0.00  0.00    +0.000 A 
ATOM     59  C43 UNK     0      -6.821   3.306  -0.083  0.00  0.00    +0.000 A 
ENDBRANCH  52  54
ENDBRANCH  51  52
ENDBRANCH   7  51
BRANCH   4  60
ATOM     60  O2  UNK     0      -1.917   0.538  -1.867  0.00  0.00    +0.000 OA
BRANCH  60  61
ATOM     61  C36 UNK     0      -1.883   1.353  -3.013  0.00  0.00    +0.000 C 
ATOM     62  C38 UNK     0      -1.018   2.568  -3.017  0.00  0.00    +0.000 C 
ATOM     63  O9  UNK     0      -2.574   1.088  -4.034  0.00  0.00    +0.000 OA
ENDBRANCH  60  61
ENDBRANCH   4  60
TORSDOF 17
