REMARK  Name = C:\Users\Maximilian\Desktop\Conformers\converted_pdb\conformers_pdb\Docetaxel_conf_27.pdb
REMARK  25 active torsions:
REMARK  status: ('A' for Active; 'I' for Inactive)
REMARK    1  A    between atoms: C17_4  and  O2_58
REMARK    2  A    between atoms: C18_5  and  C29_16
REMARK    3  A    between atoms: C20_7  and  O3_47
REMARK    4  A    between atoms: C21_8  and  O4_45
REMARK    5  A    between atoms: C22_9  and  O5_62
REMARK    6  A    between atoms: C24_11  and  C33_20
REMARK    7  A    between atoms: C24_11  and  C34_21
REMARK    8  A    between atoms: C30_17  and  O7_56
REMARK    9  A    between atoms: C31_18  and  O8_23
REMARK   10  A    between atoms: C32_19  and  C35_22
REMARK   11  A    between atoms: O8_23  and  C39_24
REMARK   12  A    between atoms: C39_24  and  C41_26
REMARK   13  A    between atoms: C41_26  and  O12_27
REMARK   14  A    between atoms: C41_26  and  C44_29
REMARK   15  A    between atoms: C44_29  and  C48_30
REMARK   16  A    between atoms: C44_29  and  N15_36
REMARK   17  A    between atoms: C51_37  and  O13_40
REMARK   18  A    between atoms: O13_40  and  C55_41
REMARK   19  A    between atoms: C55_41  and  C56_42
REMARK   20  A    between atoms: C55_41  and  C57_43
REMARK   21  A    between atoms: C55_41  and  C58_44
REMARK   22  A    between atoms: O3_47  and  C37_48
REMARK   23  A    between atoms: C37_48  and  C40_50
REMARK   24  A    between atoms: O2_58  and  C36_59
REMARK   25  A    between atoms: C36_59  and  C38_60
REMARK                            x       y       z     vdW  Elec       q    Type
REMARK                         _______ _______ _______ _____ _____    ______ ____
ROOT
ATOM      1  O1  UNK     0      -5.638  -0.704  -1.830  0.00  0.00    +0.000 OA
ATOM      2  O6  UNK     0      -1.706  -2.974   1.800  0.00  0.00    +0.000 OA
ATOM      3  C16 UNK     0      -3.034  -0.548   0.331  0.00  0.00    +0.000 C 
ATOM      4  C17 UNK     0      -3.665  -0.329  -1.108  0.00  0.00    +0.000 C 
ATOM      5  C18 UNK     0      -3.635  -1.832   1.050  0.00  0.00    +0.000 C 
ATOM      6  C19 UNK     0      -4.430  -1.431  -1.850  0.00  0.00    +0.000 C 
ATOM      7  C20 UNK     0      -2.973   0.857   1.128  0.00  0.00    +0.000 C 
ATOM      8  C21 UNK     0      -1.837   1.236   2.226  0.00  0.00    +0.000 C 
ATOM      9  C22 UNK     0      -3.671  -3.017   0.012  0.00  0.00    +0.000 C 
ATOM     10  C23 UNK     0      -4.617  -2.790  -1.171  0.00  0.00    +0.000 C 
ATOM     11  C24 UNK     0      -2.149   0.726   3.692  0.00  0.00    +0.000 C 
ATOM     12  C25 UNK     0      -5.025   0.358  -1.143  0.00  0.00    +0.000 C 
ATOM     13  C26 UNK     0      -2.661  -2.306   2.157  0.00  0.00    +0.000 C 
ATOM     14  C27 UNK     0      -0.370   0.788   1.786  0.00  0.00    +0.000 C 
ATOM     15  C28 UNK     0      -1.709  -0.751   3.792  0.00  0.00    +0.000 C 
ATOM     16  C29 UNK     0      -5.081  -1.649   1.586  0.00  0.00    +0.000 C 
ATOM     17  C30 UNK     0      -2.662  -1.927   3.628  0.00  0.00    +0.000 C 
ATOM     18  C31 UNK     0       0.470  -0.021   2.821  0.00  0.00    +0.000 C 
ATOM     19  C32 UNK     0      -0.384  -1.016   3.582  0.00  0.00    +0.000 C 
ATOM     20  C33 UNK     0      -1.314   1.554   4.748  0.00  0.00    +0.000 C 
ATOM     21  C34 UNK     0      -3.606   1.008   4.162  0.00  0.00    +0.000 C 
ATOM     22  C35 UNK     0       0.272  -2.263   4.142  0.00  0.00    +0.000 C 
ENDROOT
BRANCH   8  23
ATOM     23  O4  UNK     0      -1.840   2.652   2.343  0.00  0.00    +0.000 OA
ATOM     24  H80 UNK     0      -1.425   3.058   1.538  0.00  0.00    +0.000 HD
ENDBRANCH   8  23
BRANCH  17  25
ATOM     25  O7  UNK     0      -3.943  -1.719   4.145  0.00  0.00    +0.000 OA
ATOM     26  H85 UNK     0      -3.860  -1.767   5.138  0.00  0.00    +0.000 HD
ENDBRANCH  17  25
BRANCH   9  27
ATOM     27  O5  UNK     0      -4.029  -4.212   0.661  0.00  0.00    +0.000 OA
ATOM     28  H81 UNK     0      -3.706  -4.959   0.084  0.00  0.00    +0.000 HD
ENDBRANCH   9  27
BRANCH  18  29
ATOM     29  O8  UNK     0       1.519  -0.718   2.135  0.00  0.00    +0.000 OA
BRANCH  29  30
ATOM     30  C39 UNK     0       2.787  -0.166   1.900  0.00  0.00    +0.000 C 
ATOM     31  O11 UNK     0       2.997   1.070   2.068  0.00  0.00    +0.000 OA
BRANCH  30  32
ATOM     32  C41 UNK     0       3.880  -1.073   1.411  0.00  0.00    +0.000 C 
BRANCH  32  33
ATOM     33  O12 UNK     0       5.142  -0.599   1.826  0.00  0.00    +0.000 OA
ATOM     34  H95 UNK     0       5.291   0.291   1.417  0.00  0.00    +0.000 HD
ENDBRANCH  32  33
BRANCH  32  35
ATOM     35  C44 UNK     0       3.806  -1.292  -0.117  0.00  0.00    +0.000 C 
BRANCH  35  36
ATOM     36  C48 UNK     0       4.616  -2.473  -0.652  0.00  0.00    +0.000 A 
ATOM     37  C50 UNK     0       4.388  -2.873  -1.981  0.00  0.00    +0.000 A 
ATOM     38  C53 UNK     0       5.153  -3.885  -2.566  0.00  0.00    +0.000 A 
ATOM     39  C54 UNK     0       6.136  -4.533  -1.825  0.00  0.00    +0.000 A 
ATOM     40  C52 UNK     0       6.381  -4.147  -0.504  0.00  0.00    +0.000 A 
ATOM     41  C49 UNK     0       5.621  -3.134   0.091  0.00  0.00    +0.000 A 
ENDBRANCH  35  36
BRANCH  35  42
ATOM     42  N15 UNK     0       4.109  -0.050  -0.841  0.00  0.00    +0.000 N 
ATOM     43  C51 UNK     0       5.378   0.259  -1.425  0.00  0.00    +0.000 C 
ATOM     44  O14 UNK     0       6.423  -0.323  -1.031  0.00  0.00    +0.000 OA
ATOM     45  H97 UNK     0       3.344   0.649  -0.960  0.00  0.00    +0.000 HD
BRANCH  43  46
ATOM     46  O13 UNK     0       5.427   1.181  -2.477  0.00  0.00    +0.000 OA
BRANCH  46  47
ATOM     47  C55 UNK     0       6.527   1.361  -3.378  0.00  0.00    +0.000 C 
ATOM     48  C56 UNK     0       7.631   2.201  -2.707  0.00  0.00    +0.000 C 
ATOM     49  C57 UNK     0       7.121   0.010  -3.829  0.00  0.00    +0.000 C 
ATOM     50  C58 UNK     0       5.994   2.112  -4.611  0.00  0.00    +0.000 C 
ENDBRANCH  46  47
ENDBRANCH  43  46
ENDBRANCH  35  42
ENDBRANCH  32  35
ENDBRANCH  30  32
ENDBRANCH  29  30
ENDBRANCH  18  29
BRANCH   7  51
ATOM     51  O3  UNK     0      -2.969   1.908   0.145  0.00  0.00    +0.000 OA
BRANCH  51  52
ATOM     52  C37 UNK     0      -3.771   3.058   0.203  0.00  0.00    +0.000 C 
ATOM     53  O10 UNK     0      -4.355   3.369   1.277  0.00  0.00    +0.000 OA
BRANCH  52  54
ATOM     54  C40 UNK     0      -3.905   3.937  -0.979  0.00  0.00    +0.000 A 
ATOM     55  C42 UNK     0      -4.891   4.946  -1.016  0.00  0.00    +0.000 A 
ATOM     56  C45 UNK     0      -5.035   5.751  -2.150  0.00  0.00    +0.000 A 
ATOM     57  C47 UNK     0      -4.231   5.539  -3.269  0.00  0.00    +0.000 A 
ATOM     58  C46 UNK     0      -3.242   4.547  -3.237  0.00  0.00    +0.000 A 
ATOM     59  C43 UNK     0      -3.084   3.745  -2.103  0.00  0.00    +0.000 A 
ENDBRANCH  52  54
ENDBRANCH  51  52
ENDBRANCH   7  51
BRANCH   4  60
ATOM     60  O2  UNK     0      -2.763   0.341  -1.989  0.00  0.00    +0.000 OA
BRANCH  60  61
ATOM     61  C36 UNK     0      -1.646  -0.265  -2.577  0.00  0.00    +0.000 C 
ATOM     62  C38 UNK     0      -0.768   0.542  -3.466  0.00  0.00    +0.000 C 
ATOM     63  O9  UNK     0      -1.371  -1.469  -2.351  0.00  0.00    +0.000 OA
ENDBRANCH  60  61
ENDBRANCH   4  60
TORSDOF 17
