REMARK  Name = C:\Users\Maximilian\Desktop\Conformers\converted_pdb\conformers_pdb\Docetaxel_conf_49.pdb
REMARK  25 active torsions:
REMARK  status: ('A' for Active; 'I' for Inactive)
REMARK    1  A    between atoms: C17_4  and  O2_58
REMARK    2  A    between atoms: C18_5  and  C29_16
REMARK    3  A    between atoms: C20_7  and  O3_47
REMARK    4  A    between atoms: C21_8  and  O4_45
REMARK    5  A    between atoms: C22_9  and  O5_62
REMARK    6  A    between atoms: C24_11  and  C33_20
REMARK    7  A    between atoms: C24_11  and  C34_21
REMARK    8  A    between atoms: C30_17  and  O7_56
REMARK    9  A    between atoms: C31_18  and  O8_23
REMARK   10  A    between atoms: C32_19  and  C35_22
REMARK   11  A    between atoms: O8_23  and  C39_24
REMARK   12  A    between atoms: C39_24  and  C41_26
REMARK   13  A    between atoms: C41_26  and  O12_27
REMARK   14  A    between atoms: C41_26  and  C44_29
REMARK   15  A    between atoms: C44_29  and  C48_30
REMARK   16  A    between atoms: C44_29  and  N15_36
REMARK   17  A    between atoms: C51_37  and  O13_40
REMARK   18  A    between atoms: O13_40  and  C55_41
REMARK   19  A    between atoms: C55_41  and  C56_42
REMARK   20  A    between atoms: C55_41  and  C57_43
REMARK   21  A    between atoms: C55_41  and  C58_44
REMARK   22  A    between atoms: O3_47  and  C37_48
REMARK   23  A    between atoms: C37_48  and  C40_50
REMARK   24  A    between atoms: O2_58  and  C36_59
REMARK   25  A    between atoms: C36_59  and  C38_60
REMARK                            x       y       z     vdW  Elec       q    Type
REMARK                         _______ _______ _______ _____ _____    ______ ____
ROOT
ATOM      1  O1  UNK     0      -5.967   3.190  -1.321  0.00  0.00    +0.000 OA
ATOM      2  O6  UNK     0      -3.568  -2.116  -0.492  0.00  0.00    +0.000 OA
ATOM      3  C16 UNK     0      -3.552   1.148  -0.321  0.00  0.00    +0.000 C 
ATOM      4  C17 UNK     0      -4.006   2.562  -0.804  0.00  0.00    +0.000 C 
ATOM      5  C18 UNK     0      -4.670  -0.013  -0.353  0.00  0.00    +0.000 C 
ATOM      6  C19 UNK     0      -4.946   2.501  -2.017  0.00  0.00    +0.000 C 
ATOM      7  C20 UNK     0      -2.140   1.012   0.430  0.00  0.00    +0.000 C 
ATOM      8  C21 UNK     0      -1.906   1.216   1.999  0.00  0.00    +0.000 C 
ATOM      9  C22 UNK     0      -4.999  -0.204  -1.885  0.00  0.00    +0.000 C 
ATOM     10  C23 UNK     0      -5.469   1.124  -2.566  0.00  0.00    +0.000 C 
ATOM     11  C24 UNK     0      -2.908   0.470   2.941  0.00  0.00    +0.000 C 
ATOM     12  C25 UNK     0      -5.179   3.278  -0.153  0.00  0.00    +0.000 C 
ATOM     13  C26 UNK     0      -4.110  -1.318   0.261  0.00  0.00    +0.000 C 
ATOM     14  C27 UNK     0      -0.474   0.694   2.345  0.00  0.00    +0.000 C 
ATOM     15  C28 UNK     0      -2.903  -0.997   2.473  0.00  0.00    +0.000 C 
ATOM     16  C29 UNK     0      -6.078   0.262   0.286  0.00  0.00    +0.000 C 
ATOM     17  C30 UNK     0      -4.087  -1.666   1.761  0.00  0.00    +0.000 C 
ATOM     18  C31 UNK     0      -0.361  -0.855   2.558  0.00  0.00    +0.000 C 
ATOM     19  C32 UNK     0      -1.685  -1.631   2.475  0.00  0.00    +0.000 C 
ATOM     20  C33 UNK     0      -2.484   0.502   4.449  0.00  0.00    +0.000 C 
ATOM     21  C34 UNK     0      -4.250   1.236   2.958  0.00  0.00    +0.000 C 
ATOM     22  C35 UNK     0      -1.593  -3.144   2.532  0.00  0.00    +0.000 C 
ENDROOT
BRANCH   8  23
ATOM     23  O4  UNK     0      -1.968   2.601   2.293  0.00  0.00    +0.000 OA
ATOM     24  H80 UNK     0      -1.194   3.056   1.869  0.00  0.00    +0.000 HD
ENDBRANCH   8  23
BRANCH  17  25
ATOM     25  O7  UNK     0      -5.299  -1.423   2.418  0.00  0.00    +0.000 OA
ATOM     26  H85 UNK     0      -5.960  -2.075   2.067  0.00  0.00    +0.000 HD
ENDBRANCH  17  25
BRANCH   9  27
ATOM     27  O5  UNK     0      -5.990  -1.187  -2.079  0.00  0.00    +0.000 OA
ATOM     28  H81 UNK     0      -5.536  -2.064  -2.145  0.00  0.00    +0.000 HD
ENDBRANCH   9  27
BRANCH  18  29
ATOM     29  O8  UNK     0       0.553  -1.429   1.619  0.00  0.00    +0.000 OA
BRANCH  29  30
ATOM     30  C39 UNK     0       1.932  -1.206   1.633  0.00  0.00    +0.000 C 
ATOM     31  O11 UNK     0       2.412  -0.197   2.210  0.00  0.00    +0.000 OA
BRANCH  30  32
ATOM     32  C41 UNK     0       2.846  -2.218   0.986  0.00  0.00    +0.000 C 
BRANCH  32  33
ATOM     33  O12 UNK     0       3.569  -2.932   1.958  0.00  0.00    +0.000 OA
ATOM     34  H95 UNK     0       3.975  -2.283   2.591  0.00  0.00    +0.000 HD
ENDBRANCH  32  33
BRANCH  32  35
ATOM     35  C44 UNK     0       3.770  -1.603  -0.097  0.00  0.00    +0.000 C 
BRANCH  35  36
ATOM     36  C48 UNK     0       4.605  -2.681  -0.764  0.00  0.00    +0.000 A 
ATOM     37  C50 UNK     0       5.706  -3.255  -0.098  0.00  0.00    +0.000 A 
ATOM     38  C53 UNK     0       6.441  -4.278  -0.699  0.00  0.00    +0.000 A 
ATOM     39  C54 UNK     0       6.098  -4.732  -1.974  0.00  0.00    +0.000 A 
ATOM     40  C52 UNK     0       5.016  -4.165  -2.652  0.00  0.00    +0.000 A 
ATOM     41  C49 UNK     0       4.271  -3.143  -2.051  0.00  0.00    +0.000 A 
ENDBRANCH  35  36
BRANCH  35  42
ATOM     42  N15 UNK     0       4.649  -0.559   0.442  0.00  0.00    +0.000 N 
ATOM     43  C51 UNK     0       5.182   0.485  -0.383  0.00  0.00    +0.000 C 
ATOM     44  O14 UNK     0       4.756   0.640  -1.560  0.00  0.00    +0.000 OA
ATOM     45  H97 UNK     0       5.061  -0.668   1.396  0.00  0.00    +0.000 HD
BRANCH  43  46
ATOM     46  O13 UNK     0       6.170   1.329   0.142  0.00  0.00    +0.000 OA
BRANCH  46  47
ATOM     47  C55 UNK     0       6.823   2.405  -0.551  0.00  0.00    +0.000 C 
ATOM     48  C56 UNK     0       5.802   3.487  -0.964  0.00  0.00    +0.000 C 
ATOM     49  C57 UNK     0       7.839   3.019   0.423  0.00  0.00    +0.000 C 
ATOM     50  C58 UNK     0       7.580   1.881  -1.786  0.00  0.00    +0.000 C 
ENDBRANCH  46  47
ENDBRANCH  43  46
ENDBRANCH  35  42
ENDBRANCH  32  35
ENDBRANCH  30  32
ENDBRANCH  29  30
ENDBRANCH  18  29
BRANCH   7  51
ATOM     51  O3  UNK     0      -1.460  -0.169  -0.055  0.00  0.00    +0.000 OA
BRANCH  51  52
ATOM     52  C37 UNK     0      -0.713  -0.197  -1.252  0.00  0.00    +0.000 C 
ATOM     53  O10 UNK     0      -0.452   0.881  -1.859  0.00  0.00    +0.000 OA
BRANCH  52  54
ATOM     54  C40 UNK     0      -0.236  -1.478  -1.820  0.00  0.00    +0.000 A 
ATOM     55  C42 UNK     0      -0.464  -2.689  -1.147  0.00  0.00    +0.000 A 
ATOM     56  C45 UNK     0      -0.044  -3.903  -1.698  0.00  0.00    +0.000 A 
ATOM     57  C47 UNK     0       0.612  -3.922  -2.931  0.00  0.00    +0.000 A 
ATOM     58  C46 UNK     0       0.842  -2.726  -3.613  0.00  0.00    +0.000 A 
ATOM     59  C43 UNK     0       0.431  -1.509  -3.061  0.00  0.00    +0.000 A 
ENDBRANCH  52  54
ENDBRANCH  51  52
ENDBRANCH   7  51
BRANCH   4  60
ATOM     60  O2  UNK     0      -2.877   3.435  -1.017  0.00  0.00    +0.000 OA
BRANCH  60  61
ATOM     61  C36 UNK     0      -2.875   4.769  -1.459  0.00  0.00    +0.000 C 
ATOM     62  C38 UNK     0      -1.621   5.564  -1.366  0.00  0.00    +0.000 C 
ATOM     63  O9  UNK     0      -3.915   5.316  -1.911  0.00  0.00    +0.000 OA
ENDBRANCH  60  61
ENDBRANCH   4  60
TORSDOF 17
