REMARK  Name = C:\Users\Maximilian\Desktop\Conformers\converted_pdb\conformers_pdb\Docetaxel_conf_59.pdb
REMARK  25 active torsions:
REMARK  status: ('A' for Active; 'I' for Inactive)
REMARK    1  A    between atoms: C17_4  and  O2_58
REMARK    2  A    between atoms: C18_5  and  C29_16
REMARK    3  A    between atoms: C20_7  and  O3_47
REMARK    4  A    between atoms: C21_8  and  O4_45
REMARK    5  A    between atoms: C22_9  and  O5_62
REMARK    6  A    between atoms: C24_11  and  C33_20
REMARK    7  A    between atoms: C24_11  and  C34_21
REMARK    8  A    between atoms: C30_17  and  O7_56
REMARK    9  A    between atoms: C31_18  and  O8_23
REMARK   10  A    between atoms: C32_19  and  C35_22
REMARK   11  A    between atoms: O8_23  and  C39_24
REMARK   12  A    between atoms: C39_24  and  C41_26
REMARK   13  A    between atoms: C41_26  and  O12_27
REMARK   14  A    between atoms: C41_26  and  C44_29
REMARK   15  A    between atoms: C44_29  and  C48_30
REMARK   16  A    between atoms: C44_29  and  N15_36
REMARK   17  A    between atoms: C51_37  and  O13_40
REMARK   18  A    between atoms: O13_40  and  C55_41
REMARK   19  A    between atoms: C55_41  and  C56_42
REMARK   20  A    between atoms: C55_41  and  C57_43
REMARK   21  A    between atoms: C55_41  and  C58_44
REMARK   22  A    between atoms: O3_47  and  C37_48
REMARK   23  A    between atoms: C37_48  and  C40_50
REMARK   24  A    between atoms: O2_58  and  C36_59
REMARK   25  A    between atoms: C36_59  and  C38_60
REMARK                            x       y       z     vdW  Elec       q    Type
REMARK                         _______ _______ _______ _____ _____    ______ ____
ROOT
ATOM      1  O1  UNK     0      -5.230   1.668  -1.486  0.00  0.00    +0.000 OA
ATOM      2  O6  UNK     0      -0.669  -1.611  -3.670  0.00  0.00    +0.000 OA
ATOM      3  C16 UNK     0      -2.548  -0.479  -0.869  0.00  0.00    +0.000 C 
ATOM      4  C17 UNK     0      -3.312   0.943  -0.854  0.00  0.00    +0.000 C 
ATOM      5  C18 UNK     0      -2.621  -1.294  -2.279  0.00  0.00    +0.000 C 
ATOM      6  C19 UNK     0      -3.998   1.475  -2.121  0.00  0.00    +0.000 C 
ATOM      7  C20 UNK     0      -2.765  -1.340   0.491  0.00  0.00    +0.000 C 
ATOM      8  C21 UNK     0      -1.505  -1.790   1.383  0.00  0.00    +0.000 C 
ATOM      9  C22 UNK     0      -2.923  -0.293  -3.465  0.00  0.00    +0.000 C 
ATOM     10  C23 UNK     0      -4.192   0.511  -3.265  0.00  0.00    +0.000 C 
ATOM     11  C24 UNK     0      -0.766  -3.052   0.809  0.00  0.00    +0.000 C 
ATOM     12  C25 UNK     0      -4.749   1.064  -0.318  0.00  0.00    +0.000 C 
ATOM     13  C26 UNK     0      -1.259  -1.982  -2.659  0.00  0.00    +0.000 C 
ATOM     14  C27 UNK     0      -0.486  -0.606   1.585  0.00  0.00    +0.000 C 
ATOM     15  C28 UNK     0      -0.121  -2.592  -0.515  0.00  0.00    +0.000 C 
ATOM     16  C29 UNK     0      -3.751  -2.363  -2.270  0.00  0.00    +0.000 C 
ATOM     17  C30 UNK     0      -0.544  -3.086  -1.899  0.00  0.00    +0.000 C 
ATOM     18  C31 UNK     0       0.857  -0.688   0.809  0.00  0.00    +0.000 C 
ATOM     19  C32 UNK     0       0.760  -1.537  -0.449  0.00  0.00    +0.000 C 
ATOM     20  C33 UNK     0       0.371  -3.539   1.784  0.00  0.00    +0.000 C 
ATOM     21  C34 UNK     0      -1.718  -4.291   0.730  0.00  0.00    +0.000 C 
ATOM     22  C35 UNK     0       1.744  -1.235  -1.564  0.00  0.00    +0.000 C 
ENDROOT
BRANCH   8  23
ATOM     23  O4  UNK     0      -1.981  -2.180   2.660  0.00  0.00    +0.000 OA
ATOM     24  H80 UNK     0      -2.238  -1.374   3.179  0.00  0.00    +0.000 HD
ENDBRANCH   8  23
BRANCH  17  25
ATOM     25  O7  UNK     0      -1.314  -4.256  -1.921  0.00  0.00    +0.000 OA
ATOM     26  H85 UNK     0      -0.688  -5.027  -1.861  0.00  0.00    +0.000 HD
ENDBRANCH  17  25
BRANCH   9  27
ATOM     27  O5  UNK     0      -2.946  -0.942  -4.723  0.00  0.00    +0.000 OA
ATOM     28  H81 UNK     0      -3.867  -1.248  -4.926  0.00  0.00    +0.000 HD
ENDBRANCH   9  27
BRANCH  18  29
ATOM     29  O8  UNK     0       1.290   0.638   0.485  0.00  0.00    +0.000 OA
BRANCH  29  30
ATOM     30  C39 UNK     0       1.788   1.535   1.441  0.00  0.00    +0.000 C 
ATOM     31  O11 UNK     0       1.725   1.264   2.673  0.00  0.00    +0.000 OA
BRANCH  30  32
ATOM     32  C41 UNK     0       2.482   2.792   1.006  0.00  0.00    +0.000 C 
BRANCH  32  33
ATOM     33  O12 UNK     0       1.881   3.272  -0.169  0.00  0.00    +0.000 OA
ATOM     34  H95 UNK     0       1.990   4.257  -0.173  0.00  0.00    +0.000 HD
ENDBRANCH  32  33
BRANCH  32  35
ATOM     35  C44 UNK     0       3.986   2.505   0.785  0.00  0.00    +0.000 C 
BRANCH  35  36
ATOM     36  C48 UNK     0       4.787   3.788   0.672  0.00  0.00    +0.000 A 
ATOM     37  C50 UNK     0       4.876   4.492  -0.543  0.00  0.00    +0.000 A 
ATOM     38  C53 UNK     0       5.611   5.679  -0.619  0.00  0.00    +0.000 A 
ATOM     39  C54 UNK     0       6.248   6.184   0.518  0.00  0.00    +0.000 A 
ATOM     40  C52 UNK     0       6.153   5.503   1.732  0.00  0.00    +0.000 A 
ATOM     41  C49 UNK     0       5.422   4.314   1.812  0.00  0.00    +0.000 A 
ENDBRANCH  35  36
BRANCH  35  42
ATOM     42  N15 UNK     0       4.192   1.652  -0.393  0.00  0.00    +0.000 N 
ATOM     43  C51 UNK     0       5.182   0.621  -0.447  0.00  0.00    +0.000 C 
ATOM     44  O14 UNK     0       5.933   0.409   0.544  0.00  0.00    +0.000 OA
ATOM     45  H97 UNK     0       3.638   1.826  -1.263  0.00  0.00    +0.000 HD
BRANCH  43  46
ATOM     46  O13 UNK     0       5.290  -0.147  -1.616  0.00  0.00    +0.000 OA
BRANCH  46  47
ATOM     47  C55 UNK     0       6.146  -1.281  -1.811  0.00  0.00    +0.000 C 
ATOM     48  C56 UNK     0       7.626  -0.871  -1.686  0.00  0.00    +0.000 C 
ATOM     49  C57 UNK     0       5.805  -2.397  -0.804  0.00  0.00    +0.000 C 
ATOM     50  C58 UNK     0       5.895  -1.802  -3.235  0.00  0.00    +0.000 C 
ENDBRANCH  46  47
ENDBRANCH  43  46
ENDBRANCH  35  42
ENDBRANCH  32  35
ENDBRANCH  30  32
ENDBRANCH  29  30
ENDBRANCH  18  29
BRANCH   7  51
ATOM     51  O3  UNK     0      -3.714  -0.718   1.373  0.00  0.00    +0.000 OA
BRANCH  51  52
ATOM     52  C37 UNK     0      -4.756  -1.417   2.020  0.00  0.00    +0.000 C 
ATOM     53  O10 UNK     0      -4.885  -2.660   1.856  0.00  0.00    +0.000 OA
BRANCH  52  54
ATOM     54  C40 UNK     0      -5.721  -0.702   2.880  0.00  0.00    +0.000 A 
ATOM     55  C42 UNK     0      -5.369   0.506   3.505  0.00  0.00    +0.000 A 
ATOM     56  C45 UNK     0      -6.289   1.176   4.318  0.00  0.00    +0.000 A 
ATOM     57  C47 UNK     0      -7.564   0.642   4.519  0.00  0.00    +0.000 A 
ATOM     58  C46 UNK     0      -7.921  -0.563   3.911  0.00  0.00    +0.000 A 
ATOM     59  C43 UNK     0      -7.003  -1.237   3.101  0.00  0.00    +0.000 A 
ENDBRANCH  52  54
ENDBRANCH  51  52
ENDBRANCH   7  51
BRANCH   4  60
ATOM     60  O2  UNK     0      -2.441   2.005  -0.420  0.00  0.00    +0.000 OA
BRANCH  60  61
ATOM     61  C36 UNK     0      -2.260   2.495   0.878  0.00  0.00    +0.000 C 
ATOM     62  C38 UNK     0      -1.390   3.686   1.091  0.00  0.00    +0.000 C 
ATOM     63  O9  UNK     0      -2.836   1.966   1.861  0.00  0.00    +0.000 OA
ENDBRANCH  60  61
ENDBRANCH   4  60
TORSDOF 17
