REMARK  Name = C:\Users\Maximilian\Desktop\Conformers\converted_pdb\conformers_pdb\Docetaxel_conf_70.pdb
REMARK  25 active torsions:
REMARK  status: ('A' for Active; 'I' for Inactive)
REMARK    1  A    between atoms: C17_4  and  O2_58
REMARK    2  A    between atoms: C18_5  and  C29_16
REMARK    3  A    between atoms: C20_7  and  O3_47
REMARK    4  A    between atoms: C21_8  and  O4_45
REMARK    5  A    between atoms: C22_9  and  O5_62
REMARK    6  A    between atoms: C24_11  and  C33_20
REMARK    7  A    between atoms: C24_11  and  C34_21
REMARK    8  A    between atoms: C30_17  and  O7_56
REMARK    9  A    between atoms: C31_18  and  O8_23
REMARK   10  A    between atoms: C32_19  and  C35_22
REMARK   11  A    between atoms: O8_23  and  C39_24
REMARK   12  A    between atoms: C39_24  and  C41_26
REMARK   13  A    between atoms: C41_26  and  O12_27
REMARK   14  A    between atoms: C41_26  and  C44_29
REMARK   15  A    between atoms: C44_29  and  C48_30
REMARK   16  A    between atoms: C44_29  and  N15_36
REMARK   17  A    between atoms: C51_37  and  O13_40
REMARK   18  A    between atoms: O13_40  and  C55_41
REMARK   19  A    between atoms: C55_41  and  C56_42
REMARK   20  A    between atoms: C55_41  and  C57_43
REMARK   21  A    between atoms: C55_41  and  C58_44
REMARK   22  A    between atoms: O3_47  and  C37_48
REMARK   23  A    between atoms: C37_48  and  C40_50
REMARK   24  A    between atoms: O2_58  and  C36_59
REMARK   25  A    between atoms: C36_59  and  C38_60
REMARK                            x       y       z     vdW  Elec       q    Type
REMARK                         _______ _______ _______ _____ _____    ______ ____
ROOT
ATOM      1  O1  UNK     0      -3.603   3.172   0.007  0.00  0.00    +0.000 OA
ATOM      2  O6  UNK     0      -3.117   0.283  -4.823  0.00  0.00    +0.000 OA
ATOM      3  C16 UNK     0      -2.449   0.428  -1.230  0.00  0.00    +0.000 C 
ATOM      4  C17 UNK     0      -2.646   1.282   0.087  0.00  0.00    +0.000 C 
ATOM      5  C18 UNK     0      -2.799   1.180  -2.603  0.00  0.00    +0.000 C 
ATOM      6  C19 UNK     0      -2.261   2.739  -0.063  0.00  0.00    +0.000 C 
ATOM      7  C20 UNK     0      -3.036  -1.041  -1.106  0.00  0.00    +0.000 C 
ATOM      8  C21 UNK     0      -2.010  -2.263  -1.209  0.00  0.00    +0.000 C 
ATOM      9  C22 UNK     0      -2.047   2.574  -2.675  0.00  0.00    +0.000 C 
ATOM     10  C23 UNK     0      -1.500   3.117  -1.339  0.00  0.00    +0.000 C 
ATOM     11  C24 UNK     0      -1.446  -2.474  -2.662  0.00  0.00    +0.000 C 
ATOM     12  C25 UNK     0      -4.030   1.864   0.346  0.00  0.00    +0.000 C 
ATOM     13  C26 UNK     0      -2.357   0.353  -3.860  0.00  0.00    +0.000 C 
ATOM     14  C27 UNK     0      -0.812  -2.117  -0.197  0.00  0.00    +0.000 C 
ATOM     15  C28 UNK     0      -0.578  -1.248  -2.984  0.00  0.00    +0.000 C 
ATOM     16  C29 UNK     0      -4.346   1.435  -2.725  0.00  0.00    +0.000 C 
ATOM     17  C30 UNK     0      -0.962  -0.252  -4.072  0.00  0.00    +0.000 C 
ATOM     18  C31 UNK     0       0.533  -1.534  -0.742  0.00  0.00    +0.000 C 
ATOM     19  C32 UNK     0       0.462  -0.962  -2.149  0.00  0.00    +0.000 C 
ATOM     20  C33 UNK     0      -0.555  -3.755  -2.749  0.00  0.00    +0.000 C 
ATOM     21  C34 UNK     0      -2.582  -2.761  -3.693  0.00  0.00    +0.000 C 
ATOM     22  C35 UNK     0       1.600  -0.071  -2.586  0.00  0.00    +0.000 C 
ENDROOT
BRANCH   8  23
ATOM     23  O4  UNK     0      -2.722  -3.441  -0.886  0.00  0.00    +0.000 OA
ATOM     24  H80 UNK     0      -2.893  -3.456   0.093  0.00  0.00    +0.000 HD
ENDBRANCH   8  23
BRANCH  17  25
ATOM     25  O7  UNK     0      -0.872  -0.905  -5.315  0.00  0.00    +0.000 OA
ATOM     26  H85 UNK     0      -0.826  -0.207  -6.018  0.00  0.00    +0.000 HD
ENDBRANCH  17  25
BRANCH   9  27
ATOM     27  O5  UNK     0      -2.833   3.575  -3.278  0.00  0.00    +0.000 OA
ATOM     28  H81 UNK     0      -2.882   3.354  -4.245  0.00  0.00    +0.000 HD
ENDBRANCH   9  27
BRANCH  18  29
ATOM     29  O8  UNK     0       1.010  -0.525   0.162  0.00  0.00    +0.000 OA
BRANCH  29  30
ATOM     30  C39 UNK     0       1.706  -0.839   1.335  0.00  0.00    +0.000 C 
ATOM     31  O11 UNK     0       2.037  -2.037   1.585  0.00  0.00    +0.000 OA
BRANCH  30  32
ATOM     32  C41 UNK     0       2.102   0.235   2.313  0.00  0.00    +0.000 C 
BRANCH  32  33
ATOM     33  O12 UNK     0       1.026   1.116   2.484  0.00  0.00    +0.000 OA
ATOM     34  H95 UNK     0       1.181   1.602   3.340  0.00  0.00    +0.000 HD
ENDBRANCH  32  33
BRANCH  32  35
ATOM     35  C44 UNK     0       3.396   1.000   1.921  0.00  0.00    +0.000 C 
BRANCH  35  36
ATOM     36  C48 UNK     0       3.182   1.989   0.782  0.00  0.00    +0.000 A 
ATOM     37  C50 UNK     0       3.670   1.749  -0.517  0.00  0.00    +0.000 A 
ATOM     38  C53 UNK     0       3.444   2.673  -1.543  0.00  0.00    +0.000 A 
ATOM     39  C54 UNK     0       2.716   3.837  -1.296  0.00  0.00    +0.000 A 
ATOM     40  C52 UNK     0       2.248   4.102  -0.006  0.00  0.00    +0.000 A 
ATOM     41  C49 UNK     0       2.492   3.193   1.029  0.00  0.00    +0.000 A 
ENDBRANCH  35  36
BRANCH  35  42
ATOM     42  N15 UNK     0       4.485   0.055   1.630  0.00  0.00    +0.000 N 
ATOM     43  C51 UNK     0       5.837   0.252   2.059  0.00  0.00    +0.000 C 
ATOM     44  O14 UNK     0       6.116   1.173   2.873  0.00  0.00    +0.000 OA
ATOM     45  H97 UNK     0       4.315  -0.730   0.962  0.00  0.00    +0.000 HD
BRANCH  43  46
ATOM     46  O13 UNK     0       6.823  -0.620   1.575  0.00  0.00    +0.000 OA
BRANCH  46  47
ATOM     47  C55 UNK     0       8.209  -0.642   1.944  0.00  0.00    +0.000 C 
ATOM     48  C56 UNK     0       8.878  -1.757   1.128  0.00  0.00    +0.000 C 
ATOM     49  C57 UNK     0       8.885   0.698   1.601  0.00  0.00    +0.000 C 
ATOM     50  C58 UNK     0       8.358  -0.948   3.443  0.00  0.00    +0.000 C 
ENDBRANCH  46  47
ENDBRANCH  43  46
ENDBRANCH  35  42
ENDBRANCH  32  35
ENDBRANCH  30  32
ENDBRANCH  29  30
ENDBRANCH  18  29
BRANCH   7  51
ATOM     51  O3  UNK     0      -3.801  -1.155   0.106  0.00  0.00    +0.000 OA
BRANCH  51  52
ATOM     52  C37 UNK     0      -5.091  -1.711   0.184  0.00  0.00    +0.000 C 
ATOM     53  O10 UNK     0      -5.619  -2.245  -0.829  0.00  0.00    +0.000 OA
BRANCH  52  54
ATOM     54  C40 UNK     0      -5.842  -1.653   1.455  0.00  0.00    +0.000 A 
ATOM     55  C42 UNK     0      -7.154  -2.165   1.546  0.00  0.00    +0.000 A 
ATOM     56  C45 UNK     0      -7.854  -2.093   2.755  0.00  0.00    +0.000 A 
ATOM     57  C47 UNK     0      -7.255  -1.523   3.882  0.00  0.00    +0.000 A 
ATOM     58  C46 UNK     0      -5.956  -1.010   3.797  0.00  0.00    +0.000 A 
ATOM     59  C43 UNK     0      -5.252  -1.082   2.592  0.00  0.00    +0.000 A 
ENDBRANCH  52  54
ENDBRANCH  51  52
ENDBRANCH   7  51
BRANCH   4  60
ATOM     60  O2  UNK     0      -2.052   0.639   1.236  0.00  0.00    +0.000 OA
BRANCH  60  61
ATOM     61  C36 UNK     0      -2.060   1.062   2.575  0.00  0.00    +0.000 C 
ATOM     62  C38 UNK     0      -1.590   0.121   3.638  0.00  0.00    +0.000 C 
ATOM     63  O9  UNK     0      -2.509   2.189   2.911  0.00  0.00    +0.000 OA
ENDBRANCH  60  61
ENDBRANCH   4  60
TORSDOF 17
