REMARK  Name = C:\Users\Maximilian\Desktop\Conformers\converted_pdb\conformers_pdb\Docetaxel_conf_45.pdb
REMARK  25 active torsions:
REMARK  status: ('A' for Active; 'I' for Inactive)
REMARK    1  A    between atoms: C17_4  and  O2_58
REMARK    2  A    between atoms: C18_5  and  C29_16
REMARK    3  A    between atoms: C20_7  and  O3_47
REMARK    4  A    between atoms: C21_8  and  O4_45
REMARK    5  A    between atoms: C22_9  and  O5_62
REMARK    6  A    between atoms: C24_11  and  C33_20
REMARK    7  A    between atoms: C24_11  and  C34_21
REMARK    8  A    between atoms: C30_17  and  O7_56
REMARK    9  A    between atoms: C31_18  and  O8_23
REMARK   10  A    between atoms: C32_19  and  C35_22
REMARK   11  A    between atoms: O8_23  and  C39_24
REMARK   12  A    between atoms: C39_24  and  C41_26
REMARK   13  A    between atoms: C41_26  and  O12_27
REMARK   14  A    between atoms: C41_26  and  C44_29
REMARK   15  A    between atoms: C44_29  and  C48_30
REMARK   16  A    between atoms: C44_29  and  N15_36
REMARK   17  A    between atoms: C51_37  and  O13_40
REMARK   18  A    between atoms: O13_40  and  C55_41
REMARK   19  A    between atoms: C55_41  and  C56_42
REMARK   20  A    between atoms: C55_41  and  C57_43
REMARK   21  A    between atoms: C55_41  and  C58_44
REMARK   22  A    between atoms: O3_47  and  C37_48
REMARK   23  A    between atoms: C37_48  and  C40_50
REMARK   24  A    between atoms: O2_58  and  C36_59
REMARK   25  A    between atoms: C36_59  and  C38_60
REMARK                            x       y       z     vdW  Elec       q    Type
REMARK                         _______ _______ _______ _____ _____    ______ ____
ROOT
ATOM      1  O1  UNK     0      -5.353  -0.602  -1.972  0.00  0.00    +0.000 OA
ATOM      2  O6  UNK     0      -0.461  -3.951  -1.072  0.00  0.00    +0.000 OA
ATOM      3  C16 UNK     0      -2.529  -1.275  -0.074  0.00  0.00    +0.000 C 
ATOM      4  C17 UNK     0      -3.429  -0.411  -1.074  0.00  0.00    +0.000 C 
ATOM      5  C18 UNK     0      -2.509  -2.864  -0.382  0.00  0.00    +0.000 C 
ATOM      6  C19 UNK     0      -4.063  -1.024  -2.326  0.00  0.00    +0.000 C 
ATOM      7  C20 UNK     0      -2.737  -0.753   1.450  0.00  0.00    +0.000 C 
ATOM      8  C21 UNK     0      -1.481  -0.368   2.358  0.00  0.00    +0.000 C 
ATOM      9  C22 UNK     0      -2.783  -3.122  -1.917  0.00  0.00    +0.000 C 
ATOM     10  C23 UNK     0      -4.086  -2.536  -2.422  0.00  0.00    +0.000 C 
ATOM     11  C24 UNK     0      -0.695  -1.600   2.923  0.00  0.00    +0.000 C 
ATOM     12  C25 UNK     0      -4.900  -0.166  -0.720  0.00  0.00    +0.000 C 
ATOM     13  C26 UNK     0      -1.108  -3.533  -0.125  0.00  0.00    +0.000 C 
ATOM     14  C27 UNK     0      -0.537   0.606   1.567  0.00  0.00    +0.000 C 
ATOM     15  C28 UNK     0      -0.042  -2.285   1.720  0.00  0.00    +0.000 C 
ATOM     16  C29 UNK     0      -3.604  -3.602   0.434  0.00  0.00    +0.000 C 
ATOM     17  C30 UNK     0      -0.413  -3.670   1.208  0.00  0.00    +0.000 C 
ATOM     18  C31 UNK     0       0.756  -0.002   0.958  0.00  0.00    +0.000 C 
ATOM     19  C32 UNK     0       0.805  -1.524   0.952  0.00  0.00    +0.000 C 
ATOM     20  C33 UNK     0       0.449  -1.170   3.900  0.00  0.00    +0.000 C 
ATOM     21  C34 UNK     0      -1.612  -2.482   3.823  0.00  0.00    +0.000 C 
ATOM     22  C35 UNK     0       1.860  -2.154   0.068  0.00  0.00    +0.000 C 
ENDROOT
BRANCH   8  23
ATOM     23  O4  UNK     0      -2.011   0.337   3.472  0.00  0.00    +0.000 OA
ATOM     24  H80 UNK     0      -1.286   0.773   3.989  0.00  0.00    +0.000 HD
ENDBRANCH   8  23
BRANCH  17  25
ATOM     25  O7  UNK     0      -1.185  -4.461   2.069  0.00  0.00    +0.000 OA
ATOM     26  H85 UNK     0      -0.570  -4.932   2.690  0.00  0.00    +0.000 HD
ENDBRANCH  17  25
BRANCH   9  27
ATOM     27  O5  UNK     0      -2.790  -4.509  -2.183  0.00  0.00    +0.000 OA
ATOM     28  H81 UNK     0      -2.573  -4.621  -3.153  0.00  0.00    +0.000 HD
ENDBRANCH   9  27
BRANCH  18  29
ATOM     29  O8  UNK     0       0.929   0.471  -0.384  0.00  0.00    +0.000 OA
BRANCH  29  30
ATOM     30  C39 UNK     0       1.228   1.807  -0.707  0.00  0.00    +0.000 C 
ATOM     31  O11 UNK     0       0.912   2.742   0.068  0.00  0.00    +0.000 OA
BRANCH  30  32
ATOM     32  C41 UNK     0       1.884   2.127  -2.027  0.00  0.00    +0.000 C 
BRANCH  32  33
ATOM     33  O12 UNK     0       1.477   1.198  -2.997  0.00  0.00    +0.000 OA
ATOM     34  H95 UNK     0       0.583   1.482  -3.320  0.00  0.00    +0.000 HD
ENDBRANCH  32  33
BRANCH  32  35
ATOM     35  C44 UNK     0       3.421   2.111  -1.867  0.00  0.00    +0.000 C 
BRANCH  35  36
ATOM     36  C48 UNK     0       4.107   2.611  -3.128  0.00  0.00    +0.000 A 
ATOM     37  C50 UNK     0       4.571   3.938  -3.185  0.00  0.00    +0.000 A 
ATOM     38  C53 UNK     0       5.187   4.422  -4.341  0.00  0.00    +0.000 A 
ATOM     39  C54 UNK     0       5.320   3.598  -5.460  0.00  0.00    +0.000 A 
ATOM     40  C52 UNK     0       4.855   2.283  -5.422  0.00  0.00    +0.000 A 
ATOM     41  C49 UNK     0       4.248   1.788  -4.267  0.00  0.00    +0.000 A 
ENDBRANCH  35  36
BRANCH  35  42
ATOM     42  N15 UNK     0       3.903   0.770  -1.510  0.00  0.00    +0.000 N 
ATOM     43  C51 UNK     0       5.049   0.566  -0.677  0.00  0.00    +0.000 C 
ATOM     44  O14 UNK     0       5.727   1.553  -0.287  0.00  0.00    +0.000 OA
ATOM     45  H97 UNK     0       3.460  -0.070  -1.945  0.00  0.00    +0.000 HD
BRANCH  43  46
ATOM     46  O13 UNK     0       5.394  -0.742  -0.307  0.00  0.00    +0.000 OA
BRANCH  46  47
ATOM     47  C55 UNK     0       6.411  -1.124   0.630  0.00  0.00    +0.000 C 
ATOM     48  C56 UNK     0       6.159  -0.461   2.001  0.00  0.00    +0.000 C 
ATOM     49  C57 UNK     0       6.320  -2.652   0.777  0.00  0.00    +0.000 C 
ATOM     50  C58 UNK     0       7.808  -0.748   0.101  0.00  0.00    +0.000 C 
ENDBRANCH  46  47
ENDBRANCH  43  46
ENDBRANCH  35  42
ENDBRANCH  32  35
ENDBRANCH  30  32
ENDBRANCH  29  30
ENDBRANCH  18  29
BRANCH   7  51
ATOM     51  O3  UNK     0      -3.521   0.454   1.433  0.00  0.00    +0.000 OA
BRANCH  51  52
ATOM     52  C37 UNK     0      -4.544   0.783   2.341  0.00  0.00    +0.000 C 
ATOM     53  O10 UNK     0      -4.980  -0.077   3.155  0.00  0.00    +0.000 OA
BRANCH  52  54
ATOM     54  C40 UNK     0      -5.074   2.165   2.350  0.00  0.00    +0.000 A 
ATOM     55  C42 UNK     0      -4.525   3.133   1.484  0.00  0.00    +0.000 A 
ATOM     56  C45 UNK     0      -5.002   4.450   1.493  0.00  0.00    +0.000 A 
ATOM     57  C47 UNK     0      -6.032   4.816   2.365  0.00  0.00    +0.000 A 
ATOM     58  C46 UNK     0      -6.578   3.867   3.234  0.00  0.00    +0.000 A 
ATOM     59  C43 UNK     0      -6.103   2.548   3.232  0.00  0.00    +0.000 A 
ENDBRANCH  52  54
ENDBRANCH  51  52
ENDBRANCH   7  51
BRANCH   4  60
ATOM     60  O2  UNK     0      -2.728   0.815  -1.363  0.00  0.00    +0.000 OA
BRANCH  60  61
ATOM     61  C36 UNK     0      -3.166   1.909  -2.127  0.00  0.00    +0.000 C 
ATOM     62  C38 UNK     0      -2.311   3.127  -2.185  0.00  0.00    +0.000 C 
ATOM     63  O9  UNK     0      -4.250   1.884  -2.781  0.00  0.00    +0.000 OA
ENDBRANCH  60  61
ENDBRANCH   4  60
TORSDOF 17
