REMARK  Name = C:\Users\Maximilian\Desktop\Conformers\converted_pdb\conformers_pdb\Docetaxel_conf_31.pdb
REMARK  25 active torsions:
REMARK  status: ('A' for Active; 'I' for Inactive)
REMARK    1  A    between atoms: C17_4  and  O2_58
REMARK    2  A    between atoms: C18_5  and  C29_16
REMARK    3  A    between atoms: C20_7  and  O3_47
REMARK    4  A    between atoms: C21_8  and  O4_45
REMARK    5  A    between atoms: C22_9  and  O5_62
REMARK    6  A    between atoms: C24_11  and  C33_20
REMARK    7  A    between atoms: C24_11  and  C34_21
REMARK    8  A    between atoms: C30_17  and  O7_56
REMARK    9  A    between atoms: C31_18  and  O8_23
REMARK   10  A    between atoms: C32_19  and  C35_22
REMARK   11  A    between atoms: O8_23  and  C39_24
REMARK   12  A    between atoms: C39_24  and  C41_26
REMARK   13  A    between atoms: C41_26  and  O12_27
REMARK   14  A    between atoms: C41_26  and  C44_29
REMARK   15  A    between atoms: C44_29  and  C48_30
REMARK   16  A    between atoms: C44_29  and  N15_36
REMARK   17  A    between atoms: C51_37  and  O13_40
REMARK   18  A    between atoms: O13_40  and  C55_41
REMARK   19  A    between atoms: C55_41  and  C56_42
REMARK   20  A    between atoms: C55_41  and  C57_43
REMARK   21  A    between atoms: C55_41  and  C58_44
REMARK   22  A    between atoms: O3_47  and  C37_48
REMARK   23  A    between atoms: C37_48  and  C40_50
REMARK   24  A    between atoms: O2_58  and  C36_59
REMARK   25  A    between atoms: C36_59  and  C38_60
REMARK                            x       y       z     vdW  Elec       q    Type
REMARK                         _______ _______ _______ _____ _____    ______ ____
ROOT
ATOM      1  O1  UNK     0      -6.093   0.320  -1.676  0.00  0.00    +0.000 OA
ATOM      2  O6  UNK     0      -1.535  -3.454  -2.180  0.00  0.00    +0.000 OA
ATOM      3  C16 UNK     0      -3.158  -1.006  -0.426  0.00  0.00    +0.000 C 
ATOM      4  C17 UNK     0      -4.057   0.169  -1.039  0.00  0.00    +0.000 C 
ATOM      5  C18 UNK     0      -3.437  -2.433  -1.130  0.00  0.00    +0.000 C 
ATOM      6  C19 UNK     0      -4.880   0.029  -2.325  0.00  0.00    +0.000 C 
ATOM      7  C20 UNK     0      -3.137  -0.864   1.192  0.00  0.00    +0.000 C 
ATOM      8  C21 UNK     0      -1.784  -1.054   2.035  0.00  0.00    +0.000 C 
ATOM      9  C22 UNK     0      -3.763  -2.198  -2.666  0.00  0.00    +0.000 C 
ATOM     10  C23 UNK     0      -4.991  -1.352  -2.951  0.00  0.00    +0.000 C 
ATOM     11  C24 UNK     0      -1.358  -2.546   2.254  0.00  0.00    +0.000 C 
ATOM     12  C25 UNK     0      -5.448   0.368  -0.433  0.00  0.00    +0.000 C 
ATOM     13  C26 UNK     0      -2.175  -3.352  -1.139  0.00  0.00    +0.000 C 
ATOM     14  C27 UNK     0      -0.608  -0.206   1.403  0.00  0.00    +0.000 C 
ATOM     15  C28 UNK     0      -0.843  -3.066   0.904  0.00  0.00    +0.000 C 
ATOM     16  C29 UNK     0      -4.638  -3.180  -0.493  0.00  0.00    +0.000 C 
ATOM     17  C30 UNK     0      -1.575  -4.087   0.037  0.00  0.00    +0.000 C 
ATOM     18  C31 UNK     0       0.559  -0.981   0.729  0.00  0.00    +0.000 C 
ATOM     19  C32 UNK     0       0.204  -2.398   0.325  0.00  0.00    +0.000 C 
ATOM     20  C33 UNK     0      -0.192  -2.655   3.296  0.00  0.00    +0.000 C 
ATOM     21  C34 UNK     0      -2.493  -3.371   2.937  0.00  0.00    +0.000 C 
ATOM     22  C35 UNK     0       1.172  -3.114  -0.595  0.00  0.00    +0.000 C 
ENDROOT
BRANCH   8  23
ATOM     23  O4  UNK     0      -2.031  -0.560   3.343  0.00  0.00    +0.000 OA
ATOM     24  H80 UNK     0      -1.974   0.430   3.353  0.00  0.00    +0.000 HD
ENDBRANCH   8  23
BRANCH  17  25
ATOM     25  O7  UNK     0      -2.547  -4.854   0.691  0.00  0.00    +0.000 OA
ATOM     26  H85 UNK     0      -2.074  -5.603   1.148  0.00  0.00    +0.000 HD
ENDBRANCH  17  25
BRANCH   9  27
ATOM     27  O5  UNK     0      -3.856  -3.412  -3.382  0.00  0.00    +0.000 OA
ATOM     28  H81 UNK     0      -4.734  -3.831  -3.181  0.00  0.00    +0.000 HD
ENDBRANCH   9  27
BRANCH  18  29
ATOM     29  O8  UNK     0       1.019  -0.259  -0.418  0.00  0.00    +0.000 OA
BRANCH  29  30
ATOM     30  C39 UNK     0       1.703   0.961  -0.326  0.00  0.00    +0.000 C 
ATOM     31  O11 UNK     0       1.861   1.521   0.793  0.00  0.00    +0.000 OA
BRANCH  30  32
ATOM     32  C41 UNK     0       2.236   1.629  -1.566  0.00  0.00    +0.000 C 
BRANCH  32  33
ATOM     33  O12 UNK     0       1.529   1.176  -2.692  0.00  0.00    +0.000 OA
ATOM     34  H95 UNK     0       0.639   1.607  -2.669  0.00  0.00    +0.000 HD
ENDBRANCH  32  33
BRANCH  32  35
ATOM     35  C44 UNK     0       3.751   1.411  -1.798  0.00  0.00    +0.000 C 
BRANCH  35  36
ATOM     36  C48 UNK     0       4.097  -0.043  -2.072  0.00  0.00    +0.000 A 
ATOM     37  C50 UNK     0       4.057  -0.523  -3.395  0.00  0.00    +0.000 A 
ATOM     38  C53 UNK     0       4.378  -1.854  -3.676  0.00  0.00    +0.000 A 
ATOM     39  C54 UNK     0       4.739  -2.721  -2.644  0.00  0.00    +0.000 A 
ATOM     40  C52 UNK     0       4.772  -2.261  -1.327  0.00  0.00    +0.000 A 
ATOM     41  C49 UNK     0       4.441  -0.934  -1.035  0.00  0.00    +0.000 A 
ENDBRANCH  35  36
BRANCH  35  42
ATOM     42  N15 UNK     0       4.566   1.948  -0.697  0.00  0.00    +0.000 N 
ATOM     43  C51 UNK     0       5.918   2.386  -0.892  0.00  0.00    +0.000 C 
ATOM     44  O14 UNK     0       6.341   2.631  -2.053  0.00  0.00    +0.000 OA
ATOM     45  H97 UNK     0       4.267   1.792   0.289  0.00  0.00    +0.000 HD
BRANCH  43  46
ATOM     46  O13 UNK     0       6.749   2.534   0.230  0.00  0.00    +0.000 OA
BRANCH  46  47
ATOM     47  C55 UNK     0       8.119   2.962   0.225  0.00  0.00    +0.000 C 
ATOM     48  C56 UNK     0       8.222   4.411  -0.291  0.00  0.00    +0.000 C 
ATOM     49  C57 UNK     0       8.619   2.908   1.678  0.00  0.00    +0.000 C 
ATOM     50  C58 UNK     0       8.983   2.018  -0.636  0.00  0.00    +0.000 C 
ENDBRANCH  46  47
ENDBRANCH  43  46
ENDBRANCH  35  42
ENDBRANCH  32  35
ENDBRANCH  30  32
ENDBRANCH  29  30
ENDBRANCH  18  29
BRANCH   7  51
ATOM     51  O3  UNK     0      -3.575   0.464   1.527  0.00  0.00    +0.000 OA
BRANCH  51  52
ATOM     52  C37 UNK     0      -4.478   0.797   2.549  0.00  0.00    +0.000 C 
ATOM     53  O10 UNK     0      -5.055  -0.108   3.210  0.00  0.00    +0.000 OA
BRANCH  52  54
ATOM     54  C40 UNK     0      -4.743   2.222   2.841  0.00  0.00    +0.000 A 
ATOM     55  C42 UNK     0      -5.700   2.597   3.802  0.00  0.00    +0.000 A 
ATOM     56  C45 UNK     0      -5.935   3.951   4.073  0.00  0.00    +0.000 A 
ATOM     57  C47 UNK     0      -5.221   4.938   3.390  0.00  0.00    +0.000 A 
ATOM     58  C46 UNK     0      -4.269   4.575   2.435  0.00  0.00    +0.000 A 
ATOM     59  C43 UNK     0      -4.030   3.226   2.158  0.00  0.00    +0.000 A 
ENDBRANCH  52  54
ENDBRANCH  51  52
ENDBRANCH   7  51
BRANCH   4  60
ATOM     60  O2  UNK     0      -3.362   1.424  -1.004  0.00  0.00    +0.000 OA
BRANCH  60  61
ATOM     61  C36 UNK     0      -2.293   1.758  -1.837  0.00  0.00    +0.000 C 
ATOM     62  C38 UNK     0      -1.581   3.050  -1.621  0.00  0.00    +0.000 C 
ATOM     63  O9  UNK     0      -1.906   0.966  -2.736  0.00  0.00    +0.000 OA
ENDBRANCH  60  61
ENDBRANCH   4  60
TORSDOF 17
