REMARK  Name = C:\Users\Maximilian\Desktop\Conformers\converted_pdb\conformers_pdb\Docetaxel_conf_20.pdb
REMARK  25 active torsions:
REMARK  status: ('A' for Active; 'I' for Inactive)
REMARK    1  A    between atoms: C17_4  and  O2_58
REMARK    2  A    between atoms: C18_5  and  C29_16
REMARK    3  A    between atoms: C20_7  and  O3_47
REMARK    4  A    between atoms: C21_8  and  O4_45
REMARK    5  A    between atoms: C22_9  and  O5_62
REMARK    6  A    between atoms: C24_11  and  C33_20
REMARK    7  A    between atoms: C24_11  and  C34_21
REMARK    8  A    between atoms: C30_17  and  O7_56
REMARK    9  A    between atoms: C31_18  and  O8_23
REMARK   10  A    between atoms: C32_19  and  C35_22
REMARK   11  A    between atoms: O8_23  and  C39_24
REMARK   12  A    between atoms: C39_24  and  C41_26
REMARK   13  A    between atoms: C41_26  and  O12_27
REMARK   14  A    between atoms: C41_26  and  C44_29
REMARK   15  A    between atoms: C44_29  and  C48_30
REMARK   16  A    between atoms: C44_29  and  N15_36
REMARK   17  A    between atoms: C51_37  and  O13_40
REMARK   18  A    between atoms: O13_40  and  C55_41
REMARK   19  A    between atoms: C55_41  and  C56_42
REMARK   20  A    between atoms: C55_41  and  C57_43
REMARK   21  A    between atoms: C55_41  and  C58_44
REMARK   22  A    between atoms: O3_47  and  C37_48
REMARK   23  A    between atoms: C37_48  and  C40_50
REMARK   24  A    between atoms: O2_58  and  C36_59
REMARK   25  A    between atoms: C36_59  and  C38_60
REMARK                            x       y       z     vdW  Elec       q    Type
REMARK                         _______ _______ _______ _____ _____    ______ ____
ROOT
ATOM      1  O1  UNK     0      -4.536  -2.965  -2.844  0.00  0.00    +0.000 OA
ATOM      2  O6  UNK     0      -1.430  -3.559   1.302  0.00  0.00    +0.000 OA
ATOM      3  C16 UNK     0      -3.177  -1.483  -0.110  0.00  0.00    +0.000 C 
ATOM      4  C17 UNK     0      -3.576  -1.454  -1.674  0.00  0.00    +0.000 C 
ATOM      5  C18 UNK     0      -3.603  -2.851   0.653  0.00  0.00    +0.000 C 
ATOM      6  C19 UNK     0      -3.205  -2.725  -2.427  0.00  0.00    +0.000 C 
ATOM      7  C20 UNK     0      -3.389  -0.057   0.632  0.00  0.00    +0.000 C 
ATOM      8  C21 UNK     0      -2.496   0.447   1.905  0.00  0.00    +0.000 C 
ATOM      9  C22 UNK     0      -3.582  -4.109  -0.331  0.00  0.00    +0.000 C 
ATOM     10  C23 UNK     0      -2.699  -3.877  -1.574  0.00  0.00    +0.000 C 
ATOM     11  C24 UNK     0      -2.779  -0.192   3.335  0.00  0.00    +0.000 C 
ATOM     12  C25 UNK     0      -4.988  -1.830  -2.138  0.00  0.00    +0.000 C 
ATOM     13  C26 UNK     0      -2.516  -3.155   1.719  0.00  0.00    +0.000 C 
ATOM     14  C27 UNK     0      -0.943   0.341   1.532  0.00  0.00    +0.000 C 
ATOM     15  C28 UNK     0      -1.984  -1.513   3.451  0.00  0.00    +0.000 C 
ATOM     16  C29 UNK     0      -5.025  -2.806   1.283  0.00  0.00    +0.000 C 
ATOM     17  C30 UNK     0      -2.585  -2.896   3.214  0.00  0.00    +0.000 C 
ATOM     18  C31 UNK     0       0.025  -0.289   2.573  0.00  0.00    +0.000 C 
ATOM     19  C32 UNK     0      -0.622  -1.433   3.341  0.00  0.00    +0.000 C 
ATOM     20  C33 UNK     0      -2.249   0.700   4.520  0.00  0.00    +0.000 C 
ATOM     21  C34 UNK     0      -4.298  -0.227   3.677  0.00  0.00    +0.000 C 
ATOM     22  C35 UNK     0       0.282  -2.490   3.945  0.00  0.00    +0.000 C 
ENDROOT
BRANCH   8  23
ATOM     23  O4  UNK     0      -2.834   1.814   2.102  0.00  0.00    +0.000 OA
ATOM     24  H80 UNK     0      -2.312   2.402   1.502  0.00  0.00    +0.000 HD
ENDBRANCH   8  23
BRANCH  17  25
ATOM     25  O7  UNK     0      -3.847  -3.085   3.793  0.00  0.00    +0.000 OA
ATOM     26  H85 UNK     0      -3.713  -3.261   4.757  0.00  0.00    +0.000 HD
ENDBRANCH  17  25
BRANCH   9  27
ATOM     27  O5  UNK     0      -4.877  -4.502  -0.725  0.00  0.00    +0.000 OA
ATOM     28  H81 UNK     0      -4.764  -5.359  -1.248  0.00  0.00    +0.000 HD
ENDBRANCH   9  27
BRANCH  18  29
ATOM     29  O8  UNK     0       1.189  -0.812   1.919  0.00  0.00    +0.000 OA
BRANCH  29  30
ATOM     30  C39 UNK     0       2.180  -0.040   1.314  0.00  0.00    +0.000 C 
ATOM     31  O11 UNK     0       1.892   1.049   0.760  0.00  0.00    +0.000 OA
BRANCH  30  32
ATOM     32  C41 UNK     0       3.615  -0.514   1.392  0.00  0.00    +0.000 C 
BRANCH  32  33
ATOM     33  O12 UNK     0       4.402   0.357   2.174  0.00  0.00    +0.000 OA
ATOM     34  H95 UNK     0       4.089   1.284   2.026  0.00  0.00    +0.000 HD
ENDBRANCH  32  33
BRANCH  32  35
ATOM     35  C44 UNK     0       4.253  -0.792   0.003  0.00  0.00    +0.000 C 
BRANCH  35  36
ATOM     36  C48 UNK     0       5.682  -1.371   0.056  0.00  0.00    +0.000 A 
ATOM     37  C50 UNK     0       6.122  -2.180   1.125  0.00  0.00    +0.000 A 
ATOM     38  C53 UNK     0       7.382  -2.786   1.088  0.00  0.00    +0.000 A 
ATOM     39  C54 UNK     0       8.227  -2.588  -0.004  0.00  0.00    +0.000 A 
ATOM     40  C52 UNK     0       7.802  -1.814  -1.080  0.00  0.00    +0.000 A 
ATOM     41  C49 UNK     0       6.533  -1.237  -1.062  0.00  0.00    +0.000 A 
ENDBRANCH  35  36
BRANCH  35  42
ATOM     42  N15 UNK     0       4.171   0.383  -0.876  0.00  0.00    +0.000 N 
ATOM     43  C51 UNK     0       5.057   1.521  -0.789  0.00  0.00    +0.000 C 
ATOM     44  O14 UNK     0       5.809   1.664   0.209  0.00  0.00    +0.000 OA
ATOM     45  H97 UNK     0       3.645   0.268  -1.772  0.00  0.00    +0.000 HD
BRANCH  43  46
ATOM     46  O13 UNK     0       5.058   2.450  -1.838  0.00  0.00    +0.000 OA
BRANCH  46  47
ATOM     47  C55 UNK     0       6.063   3.455  -2.059  0.00  0.00    +0.000 C 
ATOM     48  C56 UNK     0       6.038   4.518  -0.951  0.00  0.00    +0.000 C 
ATOM     49  C57 UNK     0       7.458   2.804  -2.174  0.00  0.00    +0.000 C 
ATOM     50  C58 UNK     0       5.729   4.130  -3.407  0.00  0.00    +0.000 C 
ENDBRANCH  46  47
ENDBRANCH  43  46
ENDBRANCH  35  42
ENDBRANCH  32  35
ENDBRANCH  30  32
ENDBRANCH  29  30
ENDBRANCH  18  29
BRANCH   7  51
ATOM     51  O3  UNK     0      -3.144   0.951  -0.356  0.00  0.00    +0.000 OA
BRANCH  51  52
ATOM     52  C37 UNK     0      -3.876   2.129  -0.551  0.00  0.00    +0.000 C 
ATOM     53  O10 UNK     0      -4.986   2.307   0.021  0.00  0.00    +0.000 OA
BRANCH  52  54
ATOM     54  C40 UNK     0      -3.289   3.177  -1.426  0.00  0.00    +0.000 A 
ATOM     55  C42 UNK     0      -3.917   4.421  -1.608  0.00  0.00    +0.000 A 
ATOM     56  C45 UNK     0      -3.358   5.384  -2.459  0.00  0.00    +0.000 A 
ATOM     57  C47 UNK     0      -2.182   5.107  -3.156  0.00  0.00    +0.000 A 
ATOM     58  C46 UNK     0      -1.534   3.883  -2.961  0.00  0.00    +0.000 A 
ATOM     59  C43 UNK     0      -2.073   2.930  -2.087  0.00  0.00    +0.000 A 
ENDBRANCH  52  54
ENDBRANCH  51  52
ENDBRANCH   7  51
BRANCH   4  60
ATOM     60  O2  UNK     0      -3.062  -0.299  -2.381  0.00  0.00    +0.000 OA
BRANCH  60  61
ATOM     61  C36 UNK     0      -3.273   0.001  -3.742  0.00  0.00    +0.000 C 
ATOM     62  C38 UNK     0      -4.242   1.071  -4.139  0.00  0.00    +0.000 C 
ATOM     63  O9  UNK     0      -2.571  -0.550  -4.635  0.00  0.00    +0.000 OA
ENDBRANCH  60  61
ENDBRANCH   4  60
TORSDOF 17
