REMARK  Name = C:\Users\Maximilian\Desktop\Conformers\converted_pdb\conformers_pdb\Docetaxel_conf_72.pdb
REMARK  25 active torsions:
REMARK  status: ('A' for Active; 'I' for Inactive)
REMARK    1  A    between atoms: C17_4  and  O2_58
REMARK    2  A    between atoms: C18_5  and  C29_16
REMARK    3  A    between atoms: C20_7  and  O3_47
REMARK    4  A    between atoms: C21_8  and  O4_45
REMARK    5  A    between atoms: C22_9  and  O5_62
REMARK    6  A    between atoms: C24_11  and  C33_20
REMARK    7  A    between atoms: C24_11  and  C34_21
REMARK    8  A    between atoms: C30_17  and  O7_56
REMARK    9  A    between atoms: C31_18  and  O8_23
REMARK   10  A    between atoms: C32_19  and  C35_22
REMARK   11  A    between atoms: O8_23  and  C39_24
REMARK   12  A    between atoms: C39_24  and  C41_26
REMARK   13  A    between atoms: C41_26  and  O12_27
REMARK   14  A    between atoms: C41_26  and  C44_29
REMARK   15  A    between atoms: C44_29  and  C48_30
REMARK   16  A    between atoms: C44_29  and  N15_36
REMARK   17  A    between atoms: C51_37  and  O13_40
REMARK   18  A    between atoms: O13_40  and  C55_41
REMARK   19  A    between atoms: C55_41  and  C56_42
REMARK   20  A    between atoms: C55_41  and  C57_43
REMARK   21  A    between atoms: C55_41  and  C58_44
REMARK   22  A    between atoms: O3_47  and  C37_48
REMARK   23  A    between atoms: C37_48  and  C40_50
REMARK   24  A    between atoms: O2_58  and  C36_59
REMARK   25  A    between atoms: C36_59  and  C38_60
REMARK                            x       y       z     vdW  Elec       q    Type
REMARK                         _______ _______ _______ _____ _____    ______ ____
ROOT
ATOM      1  O1  UNK     0      -4.027  -3.798  -0.694  0.00  0.00    +0.000 OA
ATOM      2  O6  UNK     0       0.642  -1.770   2.136  0.00  0.00    +0.000 OA
ATOM      3  C16 UNK     0      -2.139  -1.369   0.691  0.00  0.00    +0.000 C 
ATOM      4  C17 UNK     0      -2.860  -2.024  -0.561  0.00  0.00    +0.000 C 
ATOM      5  C18 UNK     0      -1.598  -2.440   1.736  0.00  0.00    +0.000 C 
ATOM      6  C19 UNK     0      -2.662  -3.504  -0.902  0.00  0.00    +0.000 C 
ATOM      7  C20 UNK     0      -3.004  -0.108   1.216  0.00  0.00    +0.000 C 
ATOM      8  C21 UNK     0      -2.376   1.215   1.911  0.00  0.00    +0.000 C 
ATOM      9  C22 UNK     0      -0.880  -3.586   0.927  0.00  0.00    +0.000 C 
ATOM     10  C23 UNK     0      -1.797  -4.384   0.005  0.00  0.00    +0.000 C 
ATOM     11  C24 UNK     0      -2.127   1.103   3.473  0.00  0.00    +0.000 C 
ATOM     12  C25 UNK     0      -4.303  -2.466  -0.332  0.00  0.00    +0.000 C 
ATOM     13  C26 UNK     0      -0.489  -1.805   2.609  0.00  0.00    +0.000 C 
ATOM     14  C27 UNK     0      -1.075   1.691   1.132  0.00  0.00    +0.000 C 
ATOM     15  C28 UNK     0      -0.779   0.399   3.678  0.00  0.00    +0.000 C 
ATOM     16  C29 UNK     0      -2.706  -3.102   2.602  0.00  0.00    +0.000 C 
ATOM     17  C30 UNK     0      -0.641  -1.099   3.949  0.00  0.00    +0.000 C 
ATOM     18  C31 UNK     0       0.198   1.966   1.979  0.00  0.00    +0.000 C 
ATOM     19  C32 UNK     0       0.321   1.014   3.155  0.00  0.00    +0.000 C 
ATOM     20  C33 UNK     0      -2.031   2.514   4.165  0.00  0.00    +0.000 C 
ATOM     21  C34 UNK     0      -3.338   0.485   4.240  0.00  0.00    +0.000 C 
ATOM     22  C35 UNK     0       1.697   0.779   3.748  0.00  0.00    +0.000 C 
ENDROOT
BRANCH   8  23
ATOM     23  O4  UNK     0      -3.373   2.216   1.767  0.00  0.00    +0.000 OA
ATOM     24  H80 UNK     0      -2.967   3.127   1.822  0.00  0.00    +0.000 HD
ENDBRANCH   8  23
BRANCH  17  25
ATOM     25  O7  UNK     0      -1.656  -1.641   4.742  0.00  0.00    +0.000 OA
ATOM     26  H85 UNK     0      -1.513  -1.301   5.662  0.00  0.00    +0.000 HD
ENDBRANCH  17  25
BRANCH   9  27
ATOM     27  O5  UNK     0      -0.239  -4.479   1.807  0.00  0.00    +0.000 OA
ATOM     28  H81 UNK     0       0.511  -4.903   1.307  0.00  0.00    +0.000 HD
ENDBRANCH   9  27
BRANCH  18  29
ATOM     29  O8  UNK     0       1.367   1.823   1.164  0.00  0.00    +0.000 OA
BRANCH  29  30
ATOM     30  C39 UNK     0       1.757   2.742   0.186  0.00  0.00    +0.000 C 
ATOM     31  O11 UNK     0       0.904   3.468  -0.389  0.00  0.00    +0.000 OA
BRANCH  30  32
ATOM     32  C41 UNK     0       3.217   2.845  -0.176  0.00  0.00    +0.000 C 
BRANCH  32  33
ATOM     33  O12 UNK     0       3.459   4.064  -0.832  0.00  0.00    +0.000 OA
ATOM     34  H95 UNK     0       3.504   4.766  -0.129  0.00  0.00    +0.000 HD
ENDBRANCH  32  33
BRANCH  32  35
ATOM     35  C44 UNK     0       3.660   1.680  -1.093  0.00  0.00    +0.000 C 
BRANCH  35  36
ATOM     36  C48 UNK     0       3.519   0.331  -0.414  0.00  0.00    +0.000 A 
ATOM     37  C50 UNK     0       4.267   0.023   0.740  0.00  0.00    +0.000 A 
ATOM     38  C53 UNK     0       4.164  -1.240   1.329  0.00  0.00    +0.000 A 
ATOM     39  C54 UNK     0       3.338  -2.214   0.760  0.00  0.00    +0.000 A 
ATOM     40  C52 UNK     0       2.586  -1.915  -0.377  0.00  0.00    +0.000 A 
ATOM     41  C49 UNK     0       2.663  -0.644  -0.954  0.00  0.00    +0.000 A 
ENDBRANCH  35  36
BRANCH  35  42
ATOM     42  N15 UNK     0       5.054   1.860  -1.522  0.00  0.00    +0.000 N 
ATOM     43  C51 UNK     0       5.641   1.070  -2.565  0.00  0.00    +0.000 C 
ATOM     44  O14 UNK     0       4.946   0.217  -3.180  0.00  0.00    +0.000 OA
ATOM     45  H97 UNK     0       5.658   2.567  -1.054  0.00  0.00    +0.000 HD
BRANCH  43  46
ATOM     46  O13 UNK     0       6.995   1.254  -2.878  0.00  0.00    +0.000 OA
BRANCH  46  47
ATOM     47  C55 UNK     0       7.775   0.445  -3.773  0.00  0.00    +0.000 C 
ATOM     48  C56 UNK     0       9.210   0.997  -3.758  0.00  0.00    +0.000 C 
ATOM     49  C57 UNK     0       7.803  -1.021  -3.297  0.00  0.00    +0.000 C 
ATOM     50  C58 UNK     0       7.229   0.531  -5.210  0.00  0.00    +0.000 C 
ENDBRANCH  46  47
ENDBRANCH  43  46
ENDBRANCH  35  42
ENDBRANCH  32  35
ENDBRANCH  30  32
ENDBRANCH  29  30
ENDBRANCH  18  29
BRANCH   7  51
ATOM     51  O3  UNK     0      -3.772   0.384   0.100  0.00  0.00    +0.000 OA
BRANCH  51  52
ATOM     52  C37 UNK     0      -5.150   0.666   0.147  0.00  0.00    +0.000 C 
ATOM     53  O10 UNK     0      -5.839   0.310   1.143  0.00  0.00    +0.000 OA
BRANCH  52  54
ATOM     54  C40 UNK     0      -5.796   1.381  -0.970  0.00  0.00    +0.000 A 
ATOM     55  C42 UNK     0      -5.014   2.010  -1.952  0.00  0.00    +0.000 A 
ATOM     56  C45 UNK     0      -5.620   2.711  -2.999  0.00  0.00    +0.000 A 
ATOM     57  C47 UNK     0      -7.011   2.796  -3.075  0.00  0.00    +0.000 A 
ATOM     58  C46 UNK     0      -7.800   2.173  -2.105  0.00  0.00    +0.000 A 
ATOM     59  C43 UNK     0      -7.199   1.466  -1.055  0.00  0.00    +0.000 A 
ENDBRANCH  52  54
ENDBRANCH  51  52
ENDBRANCH   7  51
BRANCH   4  60
ATOM     60  O2  UNK     0      -2.700  -1.170  -1.718  0.00  0.00    +0.000 OA
BRANCH  60  61
ATOM     61  C36 UNK     0      -3.293  -1.303  -2.989  0.00  0.00    +0.000 C 
ATOM     62  C38 UNK     0      -3.071  -0.244  -4.015  0.00  0.00    +0.000 C 
ATOM     63  O9  UNK     0      -4.034  -2.279  -3.275  0.00  0.00    +0.000 OA
ENDBRANCH  60  61
ENDBRANCH   4  60
TORSDOF 17
