REMARK  Name = C:\Users\Maximilian\Desktop\Conformers\converted_pdb\conformers_pdb\Docetaxel_conf_33.pdb
REMARK  25 active torsions:
REMARK  status: ('A' for Active; 'I' for Inactive)
REMARK    1  A    between atoms: C17_4  and  O2_58
REMARK    2  A    between atoms: C18_5  and  C29_16
REMARK    3  A    between atoms: C20_7  and  O3_47
REMARK    4  A    between atoms: C21_8  and  O4_45
REMARK    5  A    between atoms: C22_9  and  O5_62
REMARK    6  A    between atoms: C24_11  and  C33_20
REMARK    7  A    between atoms: C24_11  and  C34_21
REMARK    8  A    between atoms: C30_17  and  O7_56
REMARK    9  A    between atoms: C31_18  and  O8_23
REMARK   10  A    between atoms: C32_19  and  C35_22
REMARK   11  A    between atoms: O8_23  and  C39_24
REMARK   12  A    between atoms: C39_24  and  C41_26
REMARK   13  A    between atoms: C41_26  and  O12_27
REMARK   14  A    between atoms: C41_26  and  C44_29
REMARK   15  A    between atoms: C44_29  and  C48_30
REMARK   16  A    between atoms: C44_29  and  N15_36
REMARK   17  A    between atoms: C51_37  and  O13_40
REMARK   18  A    between atoms: O13_40  and  C55_41
REMARK   19  A    between atoms: C55_41  and  C56_42
REMARK   20  A    between atoms: C55_41  and  C57_43
REMARK   21  A    between atoms: C55_41  and  C58_44
REMARK   22  A    between atoms: O3_47  and  C37_48
REMARK   23  A    between atoms: C37_48  and  C40_50
REMARK   24  A    between atoms: O2_58  and  C36_59
REMARK   25  A    between atoms: C36_59  and  C38_60
REMARK                            x       y       z     vdW  Elec       q    Type
REMARK                         _______ _______ _______ _____ _____    ______ ____
ROOT
ATOM      1  O1  UNK     0      -5.277   1.592   1.971  0.00  0.00    +0.000 OA
ATOM      2  O6  UNK     0       0.210   3.154   0.316  0.00  0.00    +0.000 OA
ATOM      3  C16 UNK     0      -2.502   1.140  -0.030  0.00  0.00    +0.000 C 
ATOM      4  C17 UNK     0      -3.526   0.719   1.120  0.00  0.00    +0.000 C 
ATOM      5  C18 UNK     0      -2.133   2.706  -0.013  0.00  0.00    +0.000 C 
ATOM      6  C19 UNK     0      -3.910   1.643   2.282  0.00  0.00    +0.000 C 
ATOM      7  C20 UNK     0      -2.925   0.417  -1.417  0.00  0.00    +0.000 C 
ATOM      8  C21 UNK     0      -1.823  -0.279  -2.353  0.00  0.00    +0.000 C 
ATOM      9  C22 UNK     0      -2.137   3.227   1.482  0.00  0.00    +0.000 C 
ATOM     10  C23 UNK     0      -3.461   3.093   2.210  0.00  0.00    +0.000 C 
ATOM     11  C24 UNK     0      -0.999   0.702  -3.269  0.00  0.00    +0.000 C 
ATOM     12  C25 UNK     0      -5.019   0.844   0.815  0.00  0.00    +0.000 C 
ATOM     13  C26 UNK     0      -0.676   2.975  -0.515  0.00  0.00    +0.000 C 
ATOM     14  C27 UNK     0      -0.871  -1.188  -1.492  0.00  0.00    +0.000 C 
ATOM     15  C28 UNK     0      -0.036   1.466  -2.355  0.00  0.00    +0.000 C 
ATOM     16  C29 UNK     0      -3.145   3.553  -0.826  0.00  0.00    +0.000 C 
ATOM     17  C30 UNK     0      -0.188   2.931  -1.953  0.00  0.00    +0.000 C 
ATOM     18  C31 UNK     0       0.598  -0.720  -1.286  0.00  0.00    +0.000 C 
ATOM     19  C32 UNK     0       0.861   0.727  -1.645  0.00  0.00    +0.000 C 
ATOM     20  C33 UNK     0      -0.145  -0.097  -4.311  0.00  0.00    +0.000 C 
ATOM     21  C34 UNK     0      -1.897   1.598  -4.181  0.00  0.00    +0.000 C 
ATOM     22  C35 UNK     0       2.214   1.289  -1.272  0.00  0.00    +0.000 C 
ENDROOT
BRANCH   8  23
ATOM     23  O4  UNK     0      -2.488  -1.182  -3.217  0.00  0.00    +0.000 OA
ATOM     24  H80 UNK     0      -3.175  -0.689  -3.735  0.00  0.00    +0.000 HD
ENDBRANCH   8  23
BRANCH  17  25
ATOM     25  O7  UNK     0      -0.987   3.703  -2.804  0.00  0.00    +0.000 OA
ATOM     26  H85 UNK     0      -0.862   4.651  -2.534  0.00  0.00    +0.000 HD
ENDBRANCH  17  25
BRANCH   9  27
ATOM     27  O5  UNK     0      -1.672   4.557   1.576  0.00  0.00    +0.000 OA
ATOM     28  H81 UNK     0      -2.405   5.175   1.325  0.00  0.00    +0.000 HD
ENDBRANCH   9  27
BRANCH  18  29
ATOM     29  O8  UNK     0       0.993  -0.925   0.072  0.00  0.00    +0.000 OA
BRANCH  29  30
ATOM     30  C39 UNK     0       1.254  -2.189   0.615  0.00  0.00    +0.000 C 
ATOM     31  O11 UNK     0       0.892  -3.228   0.005  0.00  0.00    +0.000 OA
BRANCH  30  32
ATOM     32  C41 UNK     0       2.022  -2.323   1.909  0.00  0.00    +0.000 C 
BRANCH  32  33
ATOM     33  O12 UNK     0       1.503  -1.487   2.916  0.00  0.00    +0.000 OA
ATOM     34  H95 UNK     0       1.424  -0.570   2.555  0.00  0.00    +0.000 HD
ENDBRANCH  32  33
BRANCH  32  35
ATOM     35  C44 UNK     0       3.541  -2.103   1.687  0.00  0.00    +0.000 C 
BRANCH  35  36
ATOM     36  C48 UNK     0       4.327  -2.435   2.941  0.00  0.00    +0.000 A 
ATOM     37  C50 UNK     0       4.959  -3.685   3.062  0.00  0.00    +0.000 A 
ATOM     38  C53 UNK     0       5.718  -3.986   4.197  0.00  0.00    +0.000 A 
ATOM     39  C54 UNK     0       5.841  -3.051   5.226  0.00  0.00    +0.000 A 
ATOM     40  C52 UNK     0       5.208  -1.811   5.123  0.00  0.00    +0.000 A 
ATOM     41  C49 UNK     0       4.442  -1.507   3.993  0.00  0.00    +0.000 A 
ENDBRANCH  35  36
BRANCH  35  42
ATOM     42  N15 UNK     0       3.852  -0.739   1.241  0.00  0.00    +0.000 N 
ATOM     43  C51 UNK     0       5.123  -0.398   0.678  0.00  0.00    +0.000 C 
ATOM     44  O14 UNK     0       6.028  -1.270   0.578  0.00  0.00    +0.000 OA
ATOM     45  H97 UNK     0       3.156   0.032   1.338  0.00  0.00    +0.000 HD
BRANCH  43  46
ATOM     46  O13 UNK     0       5.335   0.917   0.245  0.00  0.00    +0.000 OA
BRANCH  46  47
ATOM     47  C55 UNK     0       6.542   1.436  -0.329  0.00  0.00    +0.000 C 
ATOM     48  C56 UNK     0       6.287   2.915  -0.656  0.00  0.00    +0.000 C 
ATOM     49  C57 UNK     0       7.704   1.342   0.677  0.00  0.00    +0.000 C 
ATOM     50  C58 UNK     0       6.892   0.693  -1.633  0.00  0.00    +0.000 C 
ENDBRANCH  46  47
ENDBRANCH  43  46
ENDBRANCH  35  42
ENDBRANCH  32  35
ENDBRANCH  30  32
ENDBRANCH  29  30
ENDBRANCH  18  29
BRANCH   7  51
ATOM     51  O3  UNK     0      -3.858  -0.641  -1.127  0.00  0.00    +0.000 OA
BRANCH  51  52
ATOM     52  C37 UNK     0      -5.053  -0.886  -1.828  0.00  0.00    +0.000 C 
ATOM     53  O10 UNK     0      -5.442  -0.084  -2.725  0.00  0.00    +0.000 OA
BRANCH  52  54
ATOM     54  C40 UNK     0      -5.877  -2.067  -1.490  0.00  0.00    +0.000 A 
ATOM     55  C42 UNK     0      -5.552  -2.867  -0.384  0.00  0.00    +0.000 A 
ATOM     56  C45 UNK     0      -6.337  -3.974  -0.052  0.00  0.00    +0.000 A 
ATOM     57  C47 UNK     0      -7.449  -4.300  -0.829  0.00  0.00    +0.000 A 
ATOM     58  C46 UNK     0      -7.773  -3.524  -1.946  0.00  0.00    +0.000 A 
ATOM     59  C43 UNK     0      -6.998  -2.407  -2.271  0.00  0.00    +0.000 A 
ENDBRANCH  52  54
ENDBRANCH  51  52
ENDBRANCH   7  51
BRANCH   4  60
ATOM     60  O2  UNK     0      -3.262  -0.609   1.587  0.00  0.00    +0.000 OA
BRANCH  60  61
ATOM     61  C36 UNK     0      -2.159  -0.960   2.370  0.00  0.00    +0.000 C 
ATOM     62  C38 UNK     0      -1.956  -2.387   2.753  0.00  0.00    +0.000 C 
ATOM     63  O9  UNK     0      -1.323  -0.092   2.734  0.00  0.00    +0.000 OA
ENDBRANCH  60  61
ENDBRANCH   4  60
TORSDOF 17
