REMARK  Name = C:\Users\Maximilian\Desktop\Conformers\converted_pdb\conformers_pdb\Docetaxel_conf_50.pdb
REMARK  25 active torsions:
REMARK  status: ('A' for Active; 'I' for Inactive)
REMARK    1  A    between atoms: C17_4  and  O2_58
REMARK    2  A    between atoms: C18_5  and  C29_16
REMARK    3  A    between atoms: C20_7  and  O3_47
REMARK    4  A    between atoms: C21_8  and  O4_45
REMARK    5  A    between atoms: C22_9  and  O5_62
REMARK    6  A    between atoms: C24_11  and  C33_20
REMARK    7  A    between atoms: C24_11  and  C34_21
REMARK    8  A    between atoms: C30_17  and  O7_56
REMARK    9  A    between atoms: C31_18  and  O8_23
REMARK   10  A    between atoms: C32_19  and  C35_22
REMARK   11  A    between atoms: O8_23  and  C39_24
REMARK   12  A    between atoms: C39_24  and  C41_26
REMARK   13  A    between atoms: C41_26  and  O12_27
REMARK   14  A    between atoms: C41_26  and  C44_29
REMARK   15  A    between atoms: C44_29  and  C48_30
REMARK   16  A    between atoms: C44_29  and  N15_36
REMARK   17  A    between atoms: C51_37  and  O13_40
REMARK   18  A    between atoms: O13_40  and  C55_41
REMARK   19  A    between atoms: C55_41  and  C56_42
REMARK   20  A    between atoms: C55_41  and  C57_43
REMARK   21  A    between atoms: C55_41  and  C58_44
REMARK   22  A    between atoms: O3_47  and  C37_48
REMARK   23  A    between atoms: C37_48  and  C40_50
REMARK   24  A    between atoms: O2_58  and  C36_59
REMARK   25  A    between atoms: C36_59  and  C38_60
REMARK                            x       y       z     vdW  Elec       q    Type
REMARK                         _______ _______ _______ _____ _____    ______ ____
ROOT
ATOM      1  O1  UNK     0      -3.773   3.139   1.035  0.00  0.00    +0.000 OA
ATOM      2  O6  UNK     0      -5.820  -0.749  -3.015  0.00  0.00    +0.000 OA
ATOM      3  C16 UNK     0      -3.131   0.468  -0.912  0.00  0.00    +0.000 C 
ATOM      4  C17 UNK     0      -2.625   1.686  -0.031  0.00  0.00    +0.000 C 
ATOM      5  C18 UNK     0      -4.490   0.750  -1.696  0.00  0.00    +0.000 C 
ATOM      6  C19 UNK     0      -3.249   3.077  -0.265  0.00  0.00    +0.000 C 
ATOM      7  C20 UNK     0      -3.058  -0.985  -0.248  0.00  0.00    +0.000 C 
ATOM      8  C21 UNK     0      -2.142  -2.100  -0.935  0.00  0.00    +0.000 C 
ATOM      9  C22 UNK     0      -4.382   2.168  -2.347  0.00  0.00    +0.000 C 
ATOM     10  C23 UNK     0      -4.358   3.280  -1.307  0.00  0.00    +0.000 C 
ATOM     11  C24 UNK     0      -2.693  -2.588  -2.355  0.00  0.00    +0.000 C 
ATOM     12  C25 UNK     0      -3.228   1.886   1.355  0.00  0.00    +0.000 C 
ATOM     13  C26 UNK     0      -4.717  -0.250  -2.855  0.00  0.00    +0.000 C 
ATOM     14  C27 UNK     0      -0.666  -1.575  -1.081  0.00  0.00    +0.000 C 
ATOM     15  C28 UNK     0      -2.482  -1.387  -3.325  0.00  0.00    +0.000 C 
ATOM     16  C29 UNK     0      -5.731   0.680  -0.748  0.00  0.00    +0.000 C 
ATOM     17  C30 UNK     0      -3.644  -0.548  -3.882  0.00  0.00    +0.000 C 
ATOM     18  C31 UNK     0      -0.124  -1.397  -2.523  0.00  0.00    +0.000 C 
ATOM     19  C32 UNK     0      -1.206  -0.904  -3.461  0.00  0.00    +0.000 C 
ATOM     20  C33 UNK     0      -1.860  -3.811  -2.887  0.00  0.00    +0.000 C 
ATOM     21  C34 UNK     0      -4.165  -3.146  -2.296  0.00  0.00    +0.000 C 
ATOM     22  C35 UNK     0      -0.836   0.119  -4.521  0.00  0.00    +0.000 C 
ENDROOT
BRANCH   8  23
ATOM     23  O4  UNK     0      -2.076  -3.185  -0.022  0.00  0.00    +0.000 OA
ATOM     24  H80 UNK     0      -2.854  -3.795  -0.163  0.00  0.00    +0.000 HD
ENDBRANCH   8  23
BRANCH  17  25
ATOM     25  O7  UNK     0      -4.159  -1.078  -5.085  0.00  0.00    +0.000 OA
ATOM     26  H85 UNK     0      -4.428  -2.015  -4.942  0.00  0.00    +0.000 HD
ENDBRANCH  17  25
BRANCH   9  27
ATOM     27  O5  UNK     0      -5.387   2.409  -3.307  0.00  0.00    +0.000 OA
ATOM     28  H81 UNK     0      -6.262   2.487  -2.843  0.00  0.00    +0.000 HD
ENDBRANCH   9  27
BRANCH  18  29
ATOM     29  O8  UNK     0       0.981  -0.484  -2.494  0.00  0.00    +0.000 OA
BRANCH  29  30
ATOM     30  C39 UNK     0       2.309  -0.912  -2.295  0.00  0.00    +0.000 C 
ATOM     31  O11 UNK     0       2.555  -2.123  -2.038  0.00  0.00    +0.000 OA
BRANCH  30  32
ATOM     32  C41 UNK     0       3.440   0.092  -2.370  0.00  0.00    +0.000 C 
BRANCH  32  33
ATOM     33  O12 UNK     0       4.579  -0.511  -2.941  0.00  0.00    +0.000 OA
ATOM     34  H95 UNK     0       4.929  -1.174  -2.295  0.00  0.00    +0.000 HD
ENDBRANCH  32  33
BRANCH  32  35
ATOM     35  C44 UNK     0       3.725   0.723  -0.974  0.00  0.00    +0.000 C 
BRANCH  35  36
ATOM     36  C48 UNK     0       4.601   1.982  -0.991  0.00  0.00    +0.000 A 
ATOM     37  C50 UNK     0       5.531   2.272  -2.020  0.00  0.00    +0.000 A 
ATOM     38  C53 UNK     0       6.368   3.387  -1.929  0.00  0.00    +0.000 A 
ATOM     39  C54 UNK     0       6.281   4.235  -0.824  0.00  0.00    +0.000 A 
ATOM     40  C52 UNK     0       5.369   3.963   0.200  0.00  0.00    +0.000 A 
ATOM     41  C49 UNK     0       4.543   2.841   0.120  0.00  0.00    +0.000 A 
ENDBRANCH  35  36
BRANCH  35  42
ATOM     42  N15 UNK     0       4.186  -0.299  -0.011  0.00  0.00    +0.000 N 
ATOM     43  C51 UNK     0       5.396  -0.239   0.754  0.00  0.00    +0.000 C 
ATOM     44  O14 UNK     0       6.440   0.267   0.258  0.00  0.00    +0.000 OA
ATOM     45  H97 UNK     0       3.470  -0.992   0.310  0.00  0.00    +0.000 HD
BRANCH  43  46
ATOM     46  O13 UNK     0       5.382  -0.713   2.072  0.00  0.00    +0.000 OA
BRANCH  46  47
ATOM     47  C55 UNK     0       6.438  -0.593   3.033  0.00  0.00    +0.000 C 
ATOM     48  C56 UNK     0       6.752   0.895   3.307  0.00  0.00    +0.000 C 
ATOM     49  C57 UNK     0       5.935  -1.251   4.333  0.00  0.00    +0.000 C 
ATOM     50  C58 UNK     0       7.705  -1.320   2.548  0.00  0.00    +0.000 C 
ENDBRANCH  46  47
ENDBRANCH  43  46
ENDBRANCH  35  42
ENDBRANCH  32  35
ENDBRANCH  30  32
ENDBRANCH  29  30
ENDBRANCH  18  29
BRANCH   7  51
ATOM     51  O3  UNK     0      -2.792  -0.926   1.164  0.00  0.00    +0.000 OA
BRANCH  51  52
ATOM     52  C37 UNK     0      -3.527  -1.677   2.118  0.00  0.00    +0.000 C 
ATOM     53  O10 UNK     0      -4.501  -2.389   1.739  0.00  0.00    +0.000 OA
BRANCH  52  54
ATOM     54  C40 UNK     0      -3.192  -1.669   3.565  0.00  0.00    +0.000 A 
ATOM     55  C42 UNK     0      -2.242  -0.787   4.099  0.00  0.00    +0.000 A 
ATOM     56  C45 UNK     0      -1.901  -0.820   5.455  0.00  0.00    +0.000 A 
ATOM     57  C47 UNK     0      -2.526  -1.733   6.315  0.00  0.00    +0.000 A 
ATOM     58  C46 UNK     0      -3.495  -2.604   5.809  0.00  0.00    +0.000 A 
ATOM     59  C43 UNK     0      -3.826  -2.583   4.446  0.00  0.00    +0.000 A 
ENDBRANCH  52  54
ENDBRANCH  51  52
ENDBRANCH   7  51
BRANCH   4  60
ATOM     60  O2  UNK     0      -1.199   1.870  -0.110  0.00  0.00    +0.000 OA
BRANCH  60  61
ATOM     61  C36 UNK     0      -0.262   1.564   0.876  0.00  0.00    +0.000 C 
ATOM     62  C38 UNK     0       0.940   2.430   1.033  0.00  0.00    +0.000 C 
ATOM     63  O9  UNK     0      -0.460   0.628   1.693  0.00  0.00    +0.000 OA
ENDBRANCH  60  61
ENDBRANCH   4  60
TORSDOF 17
