REMARK  Name = C:\Users\Maximilian\Desktop\Conformers\converted_pdb\conformers_pdb\Docetaxel_conf_41.pdb
REMARK  25 active torsions:
REMARK  status: ('A' for Active; 'I' for Inactive)
REMARK    1  A    between atoms: C17_4  and  O2_58
REMARK    2  A    between atoms: C18_5  and  C29_16
REMARK    3  A    between atoms: C20_7  and  O3_47
REMARK    4  A    between atoms: C21_8  and  O4_45
REMARK    5  A    between atoms: C22_9  and  O5_62
REMARK    6  A    between atoms: C24_11  and  C33_20
REMARK    7  A    between atoms: C24_11  and  C34_21
REMARK    8  A    between atoms: C30_17  and  O7_56
REMARK    9  A    between atoms: C31_18  and  O8_23
REMARK   10  A    between atoms: C32_19  and  C35_22
REMARK   11  A    between atoms: O8_23  and  C39_24
REMARK   12  A    between atoms: C39_24  and  C41_26
REMARK   13  A    between atoms: C41_26  and  O12_27
REMARK   14  A    between atoms: C41_26  and  C44_29
REMARK   15  A    between atoms: C44_29  and  C48_30
REMARK   16  A    between atoms: C44_29  and  N15_36
REMARK   17  A    between atoms: C51_37  and  O13_40
REMARK   18  A    between atoms: O13_40  and  C55_41
REMARK   19  A    between atoms: C55_41  and  C56_42
REMARK   20  A    between atoms: C55_41  and  C57_43
REMARK   21  A    between atoms: C55_41  and  C58_44
REMARK   22  A    between atoms: O3_47  and  C37_48
REMARK   23  A    between atoms: C37_48  and  C40_50
REMARK   24  A    between atoms: O2_58  and  C36_59
REMARK   25  A    between atoms: C36_59  and  C38_60
REMARK                            x       y       z     vdW  Elec       q    Type
REMARK                         _______ _______ _______ _____ _____    ______ ____
ROOT
ATOM      1  O1  UNK     0      -7.013   1.567   0.685  0.00  0.00    +0.000 OA
ATOM      2  O6  UNK     0      -2.217  -1.709   1.435  0.00  0.00    +0.000 OA
ATOM      3  C16 UNK     0      -3.784   0.926   0.273  0.00  0.00    +0.000 C 
ATOM      4  C17 UNK     0      -5.100   1.598  -0.245  0.00  0.00    +0.000 C 
ATOM      5  C18 UNK     0      -3.969  -0.101   1.505  0.00  0.00    +0.000 C 
ATOM      6  C19 UNK     0      -6.344   0.696  -0.200  0.00  0.00    +0.000 C 
ATOM      7  C20 UNK     0      -2.369   1.499  -0.233  0.00  0.00    +0.000 C 
ATOM      8  C21 UNK     0      -1.493   2.652   0.461  0.00  0.00    +0.000 C 
ATOM      9  C22 UNK     0      -4.876  -1.260   0.926  0.00  0.00    +0.000 C 
ATOM     10  C23 UNK     0      -6.258  -0.754   0.386  0.00  0.00    +0.000 C 
ATOM     11  C24 UNK     0      -1.313   2.527   2.010  0.00  0.00    +0.000 C 
ATOM     12  C25 UNK     0      -5.927   2.467   0.686  0.00  0.00    +0.000 C 
ATOM     13  C26 UNK     0      -2.602  -0.668   1.950  0.00  0.00    +0.000 C 
ATOM     14  C27 UNK     0      -0.059   2.636  -0.170  0.00  0.00    +0.000 C 
ATOM     15  C28 UNK     0      -0.803   1.090   2.246  0.00  0.00    +0.000 C 
ATOM     16  C29 UNK     0      -4.745   0.378   2.783  0.00  0.00    +0.000 C 
ATOM     17  C30 UNK     0      -1.638   0.002   2.939  0.00  0.00    +0.000 C 
ATOM     18  C31 UNK     0       0.922   1.575   0.432  0.00  0.00    +0.000 C 
ATOM     19  C32 UNK     0       0.339   0.722   1.571  0.00  0.00    +0.000 C 
ATOM     20  C33 UNK     0      -0.259   3.521   2.607  0.00  0.00    +0.000 C 
ATOM     21  C34 UNK     0      -2.617   2.983   2.696  0.00  0.00    +0.000 C 
ATOM     22  C35 UNK     0       1.161  -0.469   2.020  0.00  0.00    +0.000 C 
ENDROOT
BRANCH   8  23
ATOM     23  O4  UNK     0      -2.089   3.906   0.185  0.00  0.00    +0.000 OA
ATOM     24  H80 UNK     0      -2.001   4.096  -0.786  0.00  0.00    +0.000 HD
ENDBRANCH   8  23
BRANCH  17  25
ATOM     25  O7  UNK     0      -2.280   0.459   4.094  0.00  0.00    +0.000 OA
ATOM     26  H85 UNK     0      -1.569   0.716   4.739  0.00  0.00    +0.000 HD
ENDBRANCH  17  25
BRANCH   9  27
ATOM     27  O5  UNK     0      -5.032  -2.323   1.841  0.00  0.00    +0.000 OA
ATOM     28  H81 UNK     0      -5.755  -2.098   2.481  0.00  0.00    +0.000 HD
ENDBRANCH   9  27
BRANCH  18  29
ATOM     29  O8  UNK     0       1.411   0.721  -0.609  0.00  0.00    +0.000 OA
BRANCH  29  30
ATOM     30  C39 UNK     0       2.316   1.155  -1.590  0.00  0.00    +0.000 C 
ATOM     31  O11 UNK     0       2.670   2.364  -1.643  0.00  0.00    +0.000 OA
BRANCH  30  32
ATOM     32  C41 UNK     0       2.938   0.167  -2.535  0.00  0.00    +0.000 C 
BRANCH  32  33
ATOM     33  O12 UNK     0       2.039  -0.885  -2.769  0.00  0.00    +0.000 OA
ATOM     34  H95 UNK     0       2.194  -1.205  -3.696  0.00  0.00    +0.000 HD
ENDBRANCH  32  33
BRANCH  32  35
ATOM     35  C44 UNK     0       4.267  -0.362  -1.953  0.00  0.00    +0.000 C 
BRANCH  35  36
ATOM     36  C48 UNK     0       4.974  -1.278  -2.934  0.00  0.00    +0.000 A 
ATOM     37  C50 UNK     0       4.613  -2.634  -3.065  0.00  0.00    +0.000 A 
ATOM     38  C53 UNK     0       5.261  -3.452  -3.995  0.00  0.00    +0.000 A 
ATOM     39  C54 UNK     0       6.262  -2.925  -4.815  0.00  0.00    +0.000 A 
ATOM     40  C52 UNK     0       6.615  -1.578  -4.708  0.00  0.00    +0.000 A 
ATOM     41  C49 UNK     0       5.974  -0.757  -3.775  0.00  0.00    +0.000 A 
ENDBRANCH  35  36
BRANCH  35  42
ATOM     42  N15 UNK     0       4.048  -1.043  -0.671  0.00  0.00    +0.000 N 
ATOM     43  C51 UNK     0       4.887  -0.838   0.472  0.00  0.00    +0.000 C 
ATOM     44  O14 UNK     0       5.889  -0.076   0.397  0.00  0.00    +0.000 OA
ATOM     45  H97 UNK     0       3.258  -1.721  -0.578  0.00  0.00    +0.000 HD
BRANCH  43  46
ATOM     46  O13 UNK     0       4.559  -1.482   1.674  0.00  0.00    +0.000 OA
BRANCH  46  47
ATOM     47  C55 UNK     0       5.164  -1.248   2.954  0.00  0.00    +0.000 C 
ATOM     48  C56 UNK     0       4.431  -2.136   3.970  0.00  0.00    +0.000 C 
ATOM     49  C57 UNK     0       6.654  -1.639   2.933  0.00  0.00    +0.000 C 
ATOM     50  C58 UNK     0       4.995   0.226   3.371  0.00  0.00    +0.000 C 
ENDBRANCH  46  47
ENDBRANCH  43  46
ENDBRANCH  35  42
ENDBRANCH  32  35
ENDBRANCH  30  32
ENDBRANCH  29  30
ENDBRANCH  18  29
BRANCH   7  51
ATOM     51  O3  UNK     0      -1.537   0.379  -0.609  0.00  0.00    +0.000 OA
BRANCH  51  52
ATOM     52  C37 UNK     0      -1.449  -0.124  -1.924  0.00  0.00    +0.000 C 
ATOM     53  O10 UNK     0      -1.853   0.571  -2.896  0.00  0.00    +0.000 OA
BRANCH  52  54
ATOM     54  C40 UNK     0      -0.876  -1.462  -2.185  0.00  0.00    +0.000 A 
ATOM     55  C42 UNK     0      -0.917  -2.020  -3.478  0.00  0.00    +0.000 A 
ATOM     56  C45 UNK     0      -0.354  -3.276  -3.726  0.00  0.00    +0.000 A 
ATOM     57  C47 UNK     0       0.260  -3.985  -2.692  0.00  0.00    +0.000 A 
ATOM     58  C46 UNK     0       0.302  -3.444  -1.405  0.00  0.00    +0.000 A 
ATOM     59  C43 UNK     0      -0.263  -2.190  -1.154  0.00  0.00    +0.000 A 
ENDBRANCH  52  54
ENDBRANCH  51  52
ENDBRANCH   7  51
BRANCH   4  60
ATOM     60  O2  UNK     0      -4.962   2.253  -1.517  0.00  0.00    +0.000 OA
BRANCH  60  61
ATOM     61  C36 UNK     0      -4.817   1.597  -2.749  0.00  0.00    +0.000 C 
ATOM     62  C38 UNK     0      -4.610   2.406  -3.984  0.00  0.00    +0.000 C 
ATOM     63  O9  UNK     0      -4.899   0.341  -2.833  0.00  0.00    +0.000 OA
ENDBRANCH  60  61
ENDBRANCH   4  60
TORSDOF 17
