REMARK  Name = C:\Users\Maximilian\Desktop\Conformers\converted_pdb\conformers_pdb\Docetaxel_conf_1.pdb
REMARK  25 active torsions:
REMARK  status: ('A' for Active; 'I' for Inactive)
REMARK    1  A    between atoms: C17_4  and  O2_58
REMARK    2  A    between atoms: C18_5  and  C29_16
REMARK    3  A    between atoms: C20_7  and  O3_47
REMARK    4  A    between atoms: C21_8  and  O4_45
REMARK    5  A    between atoms: C22_9  and  O5_62
REMARK    6  A    between atoms: C24_11  and  C33_20
REMARK    7  A    between atoms: C24_11  and  C34_21
REMARK    8  A    between atoms: C30_17  and  O7_56
REMARK    9  A    between atoms: C31_18  and  O8_23
REMARK   10  A    between atoms: C32_19  and  C35_22
REMARK   11  A    between atoms: O8_23  and  C39_24
REMARK   12  A    between atoms: C39_24  and  C41_26
REMARK   13  A    between atoms: C41_26  and  O12_27
REMARK   14  A    between atoms: C41_26  and  C44_29
REMARK   15  A    between atoms: C44_29  and  C48_30
REMARK   16  A    between atoms: C44_29  and  N15_36
REMARK   17  A    between atoms: C51_37  and  O13_40
REMARK   18  A    between atoms: O13_40  and  C55_41
REMARK   19  A    between atoms: C55_41  and  C56_42
REMARK   20  A    between atoms: C55_41  and  C57_43
REMARK   21  A    between atoms: C55_41  and  C58_44
REMARK   22  A    between atoms: O3_47  and  C37_48
REMARK   23  A    between atoms: C37_48  and  C40_50
REMARK   24  A    between atoms: O2_58  and  C36_59
REMARK   25  A    between atoms: C36_59  and  C38_60
REMARK                            x       y       z     vdW  Elec       q    Type
REMARK                         _______ _______ _______ _____ _____    ______ ____
ROOT
ATOM      1  O1  UNK     0      -4.731   2.556   1.634  0.00  0.00    +0.000 OA
ATOM      2  O6  UNK     0      -0.479   2.764  -2.403  0.00  0.00    +0.000 OA
ATOM      3  C16 UNK     0      -2.519   1.089  -0.506  0.00  0.00    +0.000 C 
ATOM      4  C17 UNK     0      -3.077   1.396   0.954  0.00  0.00    +0.000 C 
ATOM      5  C18 UNK     0      -2.642   2.338  -1.499  0.00  0.00    +0.000 C 
ATOM      6  C19 UNK     0      -3.359   2.825   1.437  0.00  0.00    +0.000 C 
ATOM      7  C20 UNK     0      -3.025  -0.381  -0.965  0.00  0.00    +0.000 C 
ATOM      8  C21 UNK     0      -2.125  -1.393  -1.836  0.00  0.00    +0.000 C 
ATOM      9  C22 UNK     0      -2.276   3.650  -0.694  0.00  0.00    +0.000 C 
ATOM     10  C23 UNK     0      -3.210   3.985   0.458  0.00  0.00    +0.000 C 
ATOM     11  C24 UNK     0      -2.142  -1.119  -3.390  0.00  0.00    +0.000 C 
ATOM     12  C25 UNK     0      -4.587   1.251   1.134  0.00  0.00    +0.000 C 
ATOM     13  C26 UNK     0      -1.572   2.257  -2.622  0.00  0.00    +0.000 C 
ATOM     14  C27 UNK     0      -0.635  -1.476  -1.285  0.00  0.00    +0.000 C 
ATOM     15  C28 UNK     0      -1.201   0.065  -3.661  0.00  0.00    +0.000 C 
ATOM     16  C29 UNK     0      -4.068   2.516  -2.079  0.00  0.00    +0.000 C 
ATOM     17  C30 UNK     0      -1.670   1.495  -3.931  0.00  0.00    +0.000 C 
ATOM     18  C31 UNK     0       0.508  -1.138  -2.282  0.00  0.00    +0.000 C 
ATOM     19  C32 UNK     0       0.109  -0.095  -3.308  0.00  0.00    +0.000 C 
ATOM     20  C33 UNK     0      -1.592  -2.368  -4.180  0.00  0.00    +0.000 C 
ATOM     21  C34 UNK     0      -3.585  -0.980  -3.962  0.00  0.00    +0.000 C 
ATOM     22  C35 UNK     0       1.211   0.684  -4.005  0.00  0.00    +0.000 C 
ENDROOT
BRANCH   8  23
ATOM     23  O4  UNK     0      -2.711  -2.680  -1.711  0.00  0.00    +0.000 OA
ATOM     24  H80 UNK     0      -2.479  -3.082  -0.835  0.00  0.00    +0.000 HD
ENDBRANCH   8  23
BRANCH  17  25
ATOM     25  O7  UNK     0      -2.935   1.611  -4.512  0.00  0.00    +0.000 OA
ATOM     26  H85 UNK     0      -2.848   1.352  -5.467  0.00  0.00    +0.000 HD
ENDBRANCH  17  25
BRANCH   9  27
ATOM     27  O5  UNK     0      -2.133   4.775  -1.529  0.00  0.00    +0.000 OA
ATOM     28  H81 UNK     0      -3.026   5.031  -1.868  0.00  0.00    +0.000 HD
ENDBRANCH   9  27
BRANCH  18  29
ATOM     29  O8  UNK     0       1.638  -0.672  -1.537  0.00  0.00    +0.000 OA
BRANCH  29  30
ATOM     30  C39 UNK     0       2.946  -1.153  -1.719  0.00  0.00    +0.000 C 
ATOM     31  O11 UNK     0       3.164  -2.153  -2.459  0.00  0.00    +0.000 OA
BRANCH  30  32
ATOM     32  C41 UNK     0       4.110  -0.421  -1.097  0.00  0.00    +0.000 C 
BRANCH  32  33
ATOM     33  O12 UNK     0       5.298  -1.148  -1.294  0.00  0.00    +0.000 OA
ATOM     34  H95 UNK     0       5.214  -2.004  -0.796  0.00  0.00    +0.000 HD
ENDBRANCH  32  33
BRANCH  32  35
ATOM     35  C44 UNK     0       3.900  -0.131   0.414  0.00  0.00    +0.000 C 
BRANCH  35  36
ATOM     36  C48 UNK     0       2.752   0.821   0.714  0.00  0.00    +0.000 A 
ATOM     37  C50 UNK     0       1.866   0.527   1.765  0.00  0.00    +0.000 A 
ATOM     38  C53 UNK     0       0.880   1.442   2.139  0.00  0.00    +0.000 A 
ATOM     39  C54 UNK     0       0.763   2.659   1.470  0.00  0.00    +0.000 A 
ATOM     40  C52 UNK     0       1.626   2.961   0.416  0.00  0.00    +0.000 A 
ATOM     41  C49 UNK     0       2.625   2.057   0.048  0.00  0.00    +0.000 A 
ENDBRANCH  35  36
BRANCH  35  42
ATOM     42  N15 UNK     0       5.130   0.423   0.986  0.00  0.00    +0.000 N 
ATOM     43  C51 UNK     0       6.117  -0.381   1.643  0.00  0.00    +0.000 C 
ATOM     44  O14 UNK     0       5.885  -1.597   1.888  0.00  0.00    +0.000 OA
ATOM     45  H97 UNK     0       5.373   1.419   0.782  0.00  0.00    +0.000 HD
BRANCH  43  46
ATOM     46  O13 UNK     0       7.338   0.206   2.004  0.00  0.00    +0.000 OA
BRANCH  46  47
ATOM     47  C55 UNK     0       8.463  -0.467   2.588  0.00  0.00    +0.000 C 
ATOM     48  C56 UNK     0       9.563   0.585   2.795  0.00  0.00    +0.000 C 
ATOM     49  C57 UNK     0       8.089  -1.068   3.957  0.00  0.00    +0.000 C 
ATOM     50  C58 UNK     0       8.990  -1.562   1.642  0.00  0.00    +0.000 C 
ENDBRANCH  46  47
ENDBRANCH  43  46
ENDBRANCH  35  42
ENDBRANCH  32  35
ENDBRANCH  30  32
ENDBRANCH  29  30
ENDBRANCH  18  29
BRANCH   7  51
ATOM     51  O3  UNK     0      -3.373  -1.115   0.220  0.00  0.00    +0.000 OA
BRANCH  51  52
ATOM     52  C37 UNK     0      -4.551  -1.863   0.391  0.00  0.00    +0.000 C 
ATOM     53  O10 UNK     0      -5.464  -1.828  -0.479  0.00  0.00    +0.000 OA
BRANCH  52  54
ATOM     54  C40 UNK     0      -4.717  -2.683   1.609  0.00  0.00    +0.000 A 
ATOM     55  C42 UNK     0      -5.973  -3.213   1.953  0.00  0.00    +0.000 A 
ATOM     56  C45 UNK     0      -6.116  -3.992   3.105  0.00  0.00    +0.000 A 
ATOM     57  C47 UNK     0      -5.016  -4.246   3.926  0.00  0.00    +0.000 A 
ATOM     58  C46 UNK     0      -3.767  -3.722   3.593  0.00  0.00    +0.000 A 
ATOM     59  C43 UNK     0      -3.613  -2.948   2.438  0.00  0.00    +0.000 A 
ENDBRANCH  52  54
ENDBRANCH  51  52
ENDBRANCH   7  51
BRANCH   4  60
ATOM     60  O2  UNK     0      -2.327   0.635   1.926  0.00  0.00    +0.000 OA
BRANCH  60  61
ATOM     61  C36 UNK     0      -2.588   0.494   3.302  0.00  0.00    +0.000 C 
ATOM     62  C38 UNK     0      -1.742  -0.422   4.116  0.00  0.00    +0.000 C 
ATOM     63  O9  UNK     0      -3.513   1.135   3.868  0.00  0.00    +0.000 OA
ENDBRANCH  60  61
ENDBRANCH   4  60
TORSDOF 17
