REMARK  Name = C:\Users\Maximilian\Desktop\Conformers\converted_pdb\conformers_pdb\Docetaxel_conf_47.pdb
REMARK  25 active torsions:
REMARK  status: ('A' for Active; 'I' for Inactive)
REMARK    1  A    between atoms: C17_4  and  O2_58
REMARK    2  A    between atoms: C18_5  and  C29_16
REMARK    3  A    between atoms: C20_7  and  O3_47
REMARK    4  A    between atoms: C21_8  and  O4_45
REMARK    5  A    between atoms: C22_9  and  O5_62
REMARK    6  A    between atoms: C24_11  and  C33_20
REMARK    7  A    between atoms: C24_11  and  C34_21
REMARK    8  A    between atoms: C30_17  and  O7_56
REMARK    9  A    between atoms: C31_18  and  O8_23
REMARK   10  A    between atoms: C32_19  and  C35_22
REMARK   11  A    between atoms: O8_23  and  C39_24
REMARK   12  A    between atoms: C39_24  and  C41_26
REMARK   13  A    between atoms: C41_26  and  O12_27
REMARK   14  A    between atoms: C41_26  and  C44_29
REMARK   15  A    between atoms: C44_29  and  C48_30
REMARK   16  A    between atoms: C44_29  and  N15_36
REMARK   17  A    between atoms: C51_37  and  O13_40
REMARK   18  A    between atoms: O13_40  and  C55_41
REMARK   19  A    between atoms: C55_41  and  C56_42
REMARK   20  A    between atoms: C55_41  and  C57_43
REMARK   21  A    between atoms: C55_41  and  C58_44
REMARK   22  A    between atoms: O3_47  and  C37_48
REMARK   23  A    between atoms: C37_48  and  C40_50
REMARK   24  A    between atoms: O2_58  and  C36_59
REMARK   25  A    between atoms: C36_59  and  C38_60
REMARK                            x       y       z     vdW  Elec       q    Type
REMARK                         _______ _______ _______ _____ _____    ______ ____
ROOT
ATOM      1  O1  UNK     0      -4.350   2.606  -1.129  0.00  0.00    +0.000 OA
ATOM      2  O6  UNK     0      -3.010  -2.126  -4.430  0.00  0.00    +0.000 OA
ATOM      3  C16 UNK     0      -2.665  -0.298  -1.278  0.00  0.00    +0.000 C 
ATOM      4  C17 UNK     0      -2.971   1.085  -0.581  0.00  0.00    +0.000 C 
ATOM      5  C18 UNK     0      -2.947  -0.324  -2.847  0.00  0.00    +0.000 C 
ATOM      6  C19 UNK     0      -2.995   2.354  -1.442  0.00  0.00    +0.000 C 
ATOM      7  C20 UNK     0      -3.191  -1.549  -0.445  0.00  0.00    +0.000 C 
ATOM      8  C21 UNK     0      -2.115  -2.625   0.038  0.00  0.00    +0.000 C 
ATOM      9  C22 UNK     0      -2.236   0.925  -3.455  0.00  0.00    +0.000 C 
ATOM     10  C23 UNK     0      -2.825   2.256  -2.970  0.00  0.00    +0.000 C 
ATOM     11  C24 UNK     0      -1.479  -3.443  -1.145  0.00  0.00    +0.000 C 
ATOM     12  C25 UNK     0      -4.432   1.444  -0.335  0.00  0.00    +0.000 C 
ATOM     13  C26 UNK     0      -2.352  -1.572  -3.559  0.00  0.00    +0.000 C 
ATOM     14  C27 UNK     0      -0.991  -1.954   0.911  0.00  0.00    +0.000 C 
ATOM     15  C28 UNK     0      -0.593  -2.470  -1.948  0.00  0.00    +0.000 C 
ATOM     16  C29 UNK     0      -4.480  -0.277  -3.164  0.00  0.00    +0.000 C 
ATOM     17  C30 UNK     0      -0.912  -2.036  -3.378  0.00  0.00    +0.000 C 
ATOM     18  C31 UNK     0       0.389  -1.688   0.236  0.00  0.00    +0.000 C 
ATOM     19  C32 UNK     0       0.406  -1.821  -1.280  0.00  0.00    +0.000 C 
ATOM     20  C33 UNK     0      -0.573  -4.601  -0.617  0.00  0.00    +0.000 C 
ATOM     21  C34 UNK     0      -2.575  -4.203  -1.958  0.00  0.00    +0.000 C 
ATOM     22  C35 UNK     0       1.545  -1.150  -2.016  0.00  0.00    +0.000 C 
ENDROOT
BRANCH   8  23
ATOM     23  O4  UNK     0      -2.797  -3.566   0.846  0.00  0.00    +0.000 OA
ATOM     24  H80 UNK     0      -3.002  -3.158   1.729  0.00  0.00    +0.000 HD
ENDBRANCH   8  23
BRANCH  17  25
ATOM     25  O7  UNK     0      -0.515  -3.025  -4.298  0.00  0.00    +0.000 OA
ATOM     26  H85 UNK     0      -1.173  -3.755  -4.286  0.00  0.00    +0.000 HD
ENDBRANCH  17  25
BRANCH   9  27
ATOM     27  O5  UNK     0      -2.208   0.884  -4.863  0.00  0.00    +0.000 OA
ATOM     28  H81 UNK     0      -3.130   1.033  -5.195  0.00  0.00    +0.000 HD
ENDBRANCH   9  27
BRANCH  18  29
ATOM     29  O8  UNK     0       0.846  -0.380   0.576  0.00  0.00    +0.000 OA
BRANCH  29  30
ATOM     30  C39 UNK     0       1.358  -0.043   1.834  0.00  0.00    +0.000 C 
ATOM     31  O11 UNK     0       1.118  -0.761   2.839  0.00  0.00    +0.000 OA
BRANCH  30  32
ATOM     32  C41 UNK     0       2.248   1.164   1.964  0.00  0.00    +0.000 C 
BRANCH  32  33
ATOM     33  O12 UNK     0       1.609   2.293   1.421  0.00  0.00    +0.000 OA
ATOM     34  H95 UNK     0       1.508   2.149   0.443  0.00  0.00    +0.000 HD
ENDBRANCH  32  33
BRANCH  32  35
ATOM     35  C44 UNK     0       3.606   0.905   1.267  0.00  0.00    +0.000 C 
BRANCH  35  36
ATOM     36  C48 UNK     0       4.366  -0.213   1.963  0.00  0.00    +0.000 A 
ATOM     37  C50 UNK     0       4.387  -1.504   1.408  0.00  0.00    +0.000 A 
ATOM     38  C53 UNK     0       5.043  -2.548   2.066  0.00  0.00    +0.000 A 
ATOM     39  C54 UNK     0       5.678  -2.316   3.287  0.00  0.00    +0.000 A 
ATOM     40  C52 UNK     0       5.660  -1.039   3.853  0.00  0.00    +0.000 A 
ATOM     41  C49 UNK     0       5.006   0.008   3.197  0.00  0.00    +0.000 A 
ENDBRANCH  35  36
BRANCH  35  42
ATOM     42  N15 UNK     0       4.420   2.127   1.246  0.00  0.00    +0.000 N 
ATOM     43  C51 UNK     0       5.479   2.323   0.301  0.00  0.00    +0.000 C 
ATOM     44  O14 UNK     0       5.662   1.484  -0.624  0.00  0.00    +0.000 OA
ATOM     45  H97 UNK     0       4.290   2.847   1.996  0.00  0.00    +0.000 HD
BRANCH  43  46
ATOM     46  O13 UNK     0       6.294   3.461   0.414  0.00  0.00    +0.000 OA
BRANCH  46  47
ATOM     47  C55 UNK     0       7.353   3.837  -0.482  0.00  0.00    +0.000 C 
ATOM     48  C56 UNK     0       6.803   4.066  -1.905  0.00  0.00    +0.000 C 
ATOM     49  C57 UNK     0       7.949   5.155   0.037  0.00  0.00    +0.000 C 
ATOM     50  C58 UNK     0       8.457   2.762  -0.495  0.00  0.00    +0.000 C 
ENDBRANCH  46  47
ENDBRANCH  43  46
ENDBRANCH  35  42
ENDBRANCH  32  35
ENDBRANCH  30  32
ENDBRANCH  29  30
ENDBRANCH  18  29
BRANCH   7  51
ATOM     51  O3  UNK     0      -3.896  -1.087   0.716  0.00  0.00    +0.000 OA
BRANCH  51  52
ATOM     52  C37 UNK     0      -5.147  -1.561   1.134  0.00  0.00    +0.000 C 
ATOM     53  O10 UNK     0      -5.738  -2.471   0.485  0.00  0.00    +0.000 OA
BRANCH  52  54
ATOM     54  C40 UNK     0      -5.779  -0.978   2.337  0.00  0.00    +0.000 A 
ATOM     55  C42 UNK     0      -5.082  -0.041   3.121  0.00  0.00    +0.000 A 
ATOM     56  C45 UNK     0      -5.689   0.536   4.241  0.00  0.00    +0.000 A 
ATOM     57  C47 UNK     0      -6.987   0.165   4.601  0.00  0.00    +0.000 A 
ATOM     58  C46 UNK     0      -7.685  -0.771   3.834  0.00  0.00    +0.000 A 
ATOM     59  C43 UNK     0      -7.085  -1.344   2.709  0.00  0.00    +0.000 A 
ENDBRANCH  52  54
ENDBRANCH  51  52
ENDBRANCH   7  51
BRANCH   4  60
ATOM     60  O2  UNK     0      -2.163   1.228   0.608  0.00  0.00    +0.000 OA
BRANCH  60  61
ATOM     61  C36 UNK     0      -2.208   2.258   1.565  0.00  0.00    +0.000 C 
ATOM     62  C38 UNK     0      -1.458   2.106   2.842  0.00  0.00    +0.000 C 
ATOM     63  O9  UNK     0      -2.877   3.312   1.375  0.00  0.00    +0.000 OA
ENDBRANCH  60  61
ENDBRANCH   4  60
TORSDOF 17
