REMARK  Name = C:\Users\Maximilian\Desktop\Conformers\converted_pdb\conformers_pdb\Docetaxel_conf_67.pdb
REMARK  25 active torsions:
REMARK  status: ('A' for Active; 'I' for Inactive)
REMARK    1  A    between atoms: C17_4  and  O2_58
REMARK    2  A    between atoms: C18_5  and  C29_16
REMARK    3  A    between atoms: C20_7  and  O3_47
REMARK    4  A    between atoms: C21_8  and  O4_45
REMARK    5  A    between atoms: C22_9  and  O5_62
REMARK    6  A    between atoms: C24_11  and  C33_20
REMARK    7  A    between atoms: C24_11  and  C34_21
REMARK    8  A    between atoms: C30_17  and  O7_56
REMARK    9  A    between atoms: C31_18  and  O8_23
REMARK   10  A    between atoms: C32_19  and  C35_22
REMARK   11  A    between atoms: O8_23  and  C39_24
REMARK   12  A    between atoms: C39_24  and  C41_26
REMARK   13  A    between atoms: C41_26  and  O12_27
REMARK   14  A    between atoms: C41_26  and  C44_29
REMARK   15  A    between atoms: C44_29  and  C48_30
REMARK   16  A    between atoms: C44_29  and  N15_36
REMARK   17  A    between atoms: C51_37  and  O13_40
REMARK   18  A    between atoms: O13_40  and  C55_41
REMARK   19  A    between atoms: C55_41  and  C56_42
REMARK   20  A    between atoms: C55_41  and  C57_43
REMARK   21  A    between atoms: C55_41  and  C58_44
REMARK   22  A    between atoms: O3_47  and  C37_48
REMARK   23  A    between atoms: C37_48  and  C40_50
REMARK   24  A    between atoms: O2_58  and  C36_59
REMARK   25  A    between atoms: C36_59  and  C38_60
REMARK                            x       y       z     vdW  Elec       q    Type
REMARK                         _______ _______ _______ _____ _____    ______ ____
ROOT
ATOM      1  O1  UNK     0      -6.175   0.321  -1.479  0.00  0.00    +0.000 OA
ATOM      2  O6  UNK     0      -3.113  -4.846  -2.355  0.00  0.00    +0.000 OA
ATOM      3  C16 UNK     0      -3.278  -1.398  -0.941  0.00  0.00    +0.000 C 
ATOM      4  C17 UNK     0      -4.095  -0.041  -1.136  0.00  0.00    +0.000 C 
ATOM      5  C18 UNK     0      -3.807  -2.595  -1.874  0.00  0.00    +0.000 C 
ATOM      6  C19 UNK     0      -5.066   0.133  -2.330  0.00  0.00    +0.000 C 
ATOM      7  C20 UNK     0      -2.955  -1.694   0.612  0.00  0.00    +0.000 C 
ATOM      8  C21 UNK     0      -1.463  -2.140   1.065  0.00  0.00    +0.000 C 
ATOM      9  C22 UNK     0      -4.145  -2.008  -3.300  0.00  0.00    +0.000 C 
ATOM     10  C23 UNK     0      -5.331  -1.049  -3.269  0.00  0.00    +0.000 C 
ATOM     11  C24 UNK     0      -0.845  -3.355   0.257  0.00  0.00    +0.000 C 
ATOM     12  C25 UNK     0      -5.378   0.121  -0.329  0.00  0.00    +0.000 C 
ATOM     13  C26 UNK     0      -2.747  -3.692  -2.154  0.00  0.00    +0.000 C 
ATOM     14  C27 UNK     0      -0.471  -0.905   1.019  0.00  0.00    +0.000 C 
ATOM     15  C28 UNK     0      -0.574  -2.816  -1.173  0.00  0.00    +0.000 C 
ATOM     16  C29 UNK     0      -5.058  -3.284  -1.247  0.00  0.00    +0.000 C 
ATOM     17  C30 UNK     0      -1.278  -3.390  -2.396  0.00  0.00    +0.000 C 
ATOM     18  C31 UNK     0       0.676  -0.974  -0.018  0.00  0.00    +0.000 C 
ATOM     19  C32 UNK     0       0.238  -1.703  -1.275  0.00  0.00    +0.000 C 
ATOM     20  C33 UNK     0       0.521  -3.836   0.882  0.00  0.00    +0.000 C 
ATOM     21  C34 UNK     0      -1.752  -4.621   0.370  0.00  0.00    +0.000 C 
ATOM     22  C35 UNK     0       0.804  -1.213  -2.593  0.00  0.00    +0.000 C 
ENDROOT
BRANCH   8  23
ATOM     23  O4  UNK     0      -1.575  -2.604   2.401  0.00  0.00    +0.000 OA
ATOM     24  H80 UNK     0      -1.612  -1.850   3.037  0.00  0.00    +0.000 HD
ENDBRANCH   8  23
BRANCH  17  25
ATOM     25  O7  UNK     0      -0.577  -4.541  -2.798  0.00  0.00    +0.000 OA
ATOM     26  H85 UNK     0      -0.833  -4.739  -3.736  0.00  0.00    +0.000 HD
ENDBRANCH  17  25
BRANCH   9  27
ATOM     27  O5  UNK     0      -4.350  -3.022  -4.275  0.00  0.00    +0.000 OA
ATOM     28  H81 UNK     0      -5.227  -3.450  -4.088  0.00  0.00    +0.000 HD
ENDBRANCH   9  27
BRANCH  18  29
ATOM     29  O8  UNK     0       1.132   0.357  -0.304  0.00  0.00    +0.000 OA
BRANCH  29  30
ATOM     30  C39 UNK     0       1.934   1.079   0.588  0.00  0.00    +0.000 C 
ATOM     31  O11 UNK     0       2.407   0.503   1.605  0.00  0.00    +0.000 OA
BRANCH  30  32
ATOM     32  C41 UNK     0       2.238   2.551   0.360  0.00  0.00    +0.000 C 
BRANCH  32  33
ATOM     33  O12 UNK     0       1.223   3.202  -0.380  0.00  0.00    +0.000 OA
ATOM     34  H95 UNK     0       1.045   2.647  -1.179  0.00  0.00    +0.000 HD
ENDBRANCH  32  33
BRANCH  32  35
ATOM     35  C44 UNK     0       3.650   2.810  -0.246  0.00  0.00    +0.000 C 
BRANCH  35  36
ATOM     36  C48 UNK     0       3.674   2.815  -1.761  0.00  0.00    +0.000 A 
ATOM     37  C50 UNK     0       4.128   3.946  -2.471  0.00  0.00    +0.000 A 
ATOM     38  C53 UNK     0       4.287   3.905  -3.859  0.00  0.00    +0.000 A 
ATOM     39  C54 UNK     0       3.965   2.730  -4.560  0.00  0.00    +0.000 A 
ATOM     40  C52 UNK     0       3.491   1.623  -3.868  0.00  0.00    +0.000 A 
ATOM     41  C49 UNK     0       3.369   1.649  -2.481  0.00  0.00    +0.000 A 
ENDBRANCH  35  36
BRANCH  35  42
ATOM     42  N15 UNK     0       4.646   1.837   0.245  0.00  0.00    +0.000 N 
ATOM     43  C51 UNK     0       5.544   2.064   1.327  0.00  0.00    +0.000 C 
ATOM     44  O14 UNK     0       5.398   3.063   2.084  0.00  0.00    +0.000 OA
ATOM     45  H97 UNK     0       4.657   0.887  -0.190  0.00  0.00    +0.000 HD
BRANCH  43  46
ATOM     46  O13 UNK     0       6.592   1.145   1.515  0.00  0.00    +0.000 OA
BRANCH  46  47
ATOM     47  C55 UNK     0       7.482   1.054   2.634  0.00  0.00    +0.000 C 
ATOM     48  C56 UNK     0       8.462  -0.096   2.350  0.00  0.00    +0.000 C 
ATOM     49  C57 UNK     0       8.277   2.360   2.820  0.00  0.00    +0.000 C 
ATOM     50  C58 UNK     0       6.690   0.724   3.911  0.00  0.00    +0.000 C 
ENDBRANCH  46  47
ENDBRANCH  43  46
ENDBRANCH  35  42
ENDBRANCH  32  35
ENDBRANCH  30  32
ENDBRANCH  29  30
ENDBRANCH  18  29
BRANCH   7  51
ATOM     51  O3  UNK     0      -3.268  -0.498   1.359  0.00  0.00    +0.000 OA
BRANCH  51  52
ATOM     52  C37 UNK     0      -3.696  -0.403   2.683  0.00  0.00    +0.000 C 
ATOM     53  O10 UNK     0      -4.226  -1.397   3.261  0.00  0.00    +0.000 OA
BRANCH  52  54
ATOM     54  C40 UNK     0      -3.520   0.887   3.379  0.00  0.00    +0.000 A 
ATOM     55  C42 UNK     0      -2.982   1.982   2.690  0.00  0.00    +0.000 A 
ATOM     56  C45 UNK     0      -2.771   3.210   3.338  0.00  0.00    +0.000 A 
ATOM     57  C47 UNK     0      -3.104   3.357   4.681  0.00  0.00    +0.000 A 
ATOM     58  C46 UNK     0      -3.640   2.281   5.384  0.00  0.00    +0.000 A 
ATOM     59  C43 UNK     0      -3.840   1.047   4.750  0.00  0.00    +0.000 A 
ENDBRANCH  52  54
ENDBRANCH  51  52
ENDBRANCH   7  51
BRANCH   4  60
ATOM     60  O2  UNK     0      -3.206   1.092  -0.983  0.00  0.00    +0.000 OA
BRANCH  60  61
ATOM     61  C36 UNK     0      -3.498   2.455  -1.115  0.00  0.00    +0.000 C 
ATOM     62  C38 UNK     0      -2.377   3.431  -1.120  0.00  0.00    +0.000 C 
ATOM     63  O9  UNK     0      -4.681   2.882  -1.236  0.00  0.00    +0.000 OA
ENDBRANCH  60  61
ENDBRANCH   4  60
TORSDOF 17
