REMARK  Name = C:\Users\Maximilian\Desktop\Conformers\converted_pdb\conformers_pdb\Docetaxel_conf_73.pdb
REMARK  25 active torsions:
REMARK  status: ('A' for Active; 'I' for Inactive)
REMARK    1  A    between atoms: C17_4  and  O2_58
REMARK    2  A    between atoms: C18_5  and  C29_16
REMARK    3  A    between atoms: C20_7  and  O3_47
REMARK    4  A    between atoms: C21_8  and  O4_45
REMARK    5  A    between atoms: C22_9  and  O5_62
REMARK    6  A    between atoms: C24_11  and  C33_20
REMARK    7  A    between atoms: C24_11  and  C34_21
REMARK    8  A    between atoms: C30_17  and  O7_56
REMARK    9  A    between atoms: C31_18  and  O8_23
REMARK   10  A    between atoms: C32_19  and  C35_22
REMARK   11  A    between atoms: O8_23  and  C39_24
REMARK   12  A    between atoms: C39_24  and  C41_26
REMARK   13  A    between atoms: C41_26  and  O12_27
REMARK   14  A    between atoms: C41_26  and  C44_29
REMARK   15  A    between atoms: C44_29  and  C48_30
REMARK   16  A    between atoms: C44_29  and  N15_36
REMARK   17  A    between atoms: C51_37  and  O13_40
REMARK   18  A    between atoms: O13_40  and  C55_41
REMARK   19  A    between atoms: C55_41  and  C56_42
REMARK   20  A    between atoms: C55_41  and  C57_43
REMARK   21  A    between atoms: C55_41  and  C58_44
REMARK   22  A    between atoms: O3_47  and  C37_48
REMARK   23  A    between atoms: C37_48  and  C40_50
REMARK   24  A    between atoms: O2_58  and  C36_59
REMARK   25  A    between atoms: C36_59  and  C38_60
REMARK                            x       y       z     vdW  Elec       q    Type
REMARK                         _______ _______ _______ _____ _____    ______ ____
ROOT
ATOM      1  O1  UNK     0      -5.395  -2.534  -0.137  0.00  0.00    +0.000 OA
ATOM      2  O6  UNK     0      -3.675   0.802   4.584  0.00  0.00    +0.000 OA
ATOM      3  C16 UNK     0      -3.189  -0.222   1.062  0.00  0.00    +0.000 C 
ATOM      4  C17 UNK     0      -3.586  -1.392   0.037  0.00  0.00    +0.000 C 
ATOM      5  C18 UNK     0      -3.769  -0.431   2.539  0.00  0.00    +0.000 C 
ATOM      6  C19 UNK     0      -4.201  -2.690   0.588  0.00  0.00    +0.000 C 
ATOM      7  C20 UNK     0      -3.323   1.270   0.495  0.00  0.00    +0.000 C 
ATOM      8  C21 UNK     0      -2.039   2.224   0.528  0.00  0.00    +0.000 C 
ATOM      9  C22 UNK     0      -3.595  -1.935   2.937  0.00  0.00    +0.000 C 
ATOM     10  C23 UNK     0      -4.486  -2.841   2.084  0.00  0.00    +0.000 C 
ATOM     11  C24 UNK     0      -1.505   2.549   1.979  0.00  0.00    +0.000 C 
ATOM     12  C25 UNK     0      -4.926  -1.338  -0.710  0.00  0.00    +0.000 C 
ATOM     13  C26 UNK     0      -3.028   0.382   3.629  0.00  0.00    +0.000 C 
ATOM     14  C27 UNK     0      -0.881   1.617  -0.366  0.00  0.00    +0.000 C 
ATOM     15  C28 UNK     0      -0.916   1.227   2.518  0.00  0.00    +0.000 C 
ATOM     16  C29 UNK     0      -5.283  -0.042   2.607  0.00  0.00    +0.000 C 
ATOM     17  C30 UNK     0      -1.518   0.512   3.719  0.00  0.00    +0.000 C 
ATOM     18  C31 UNK     0       0.398   1.148   0.390  0.00  0.00    +0.000 C 
ATOM     19  C32 UNK     0       0.077   0.628   1.786  0.00  0.00    +0.000 C 
ATOM     20  C33 UNK     0      -0.350   3.628   1.951  0.00  0.00    +0.000 C 
ATOM     21  C34 UNK     0      -2.614   3.213   2.863  0.00  0.00    +0.000 C 
ATOM     22  C35 UNK     0       0.929  -0.505   2.350  0.00  0.00    +0.000 C 
ENDROOT
BRANCH   8  23
ATOM     23  O4  UNK     0      -2.428   3.466  -0.025  0.00  0.00    +0.000 OA
ATOM     24  H80 UNK     0      -2.553   3.377  -1.003  0.00  0.00    +0.000 HD
ENDBRANCH   8  23
BRANCH  17  25
ATOM     25  O7  UNK     0      -1.130   1.206   4.878  0.00  0.00    +0.000 OA
ATOM     26  H85 UNK     0      -1.295   0.612   5.652  0.00  0.00    +0.000 HD
ENDBRANCH  17  25
BRANCH   9  27
ATOM     27  O5  UNK     0      -3.914  -2.131   4.296  0.00  0.00    +0.000 OA
ATOM     28  H81 UNK     0      -3.542  -3.014   4.561  0.00  0.00    +0.000 HD
ENDBRANCH   9  27
BRANCH  18  29
ATOM     29  O8  UNK     0       1.068   0.150  -0.383  0.00  0.00    +0.000 OA
BRANCH  29  30
ATOM     30  C39 UNK     0       1.874   0.460  -1.490  0.00  0.00    +0.000 C 
ATOM     31  O11 UNK     0       1.804   1.597  -2.044  0.00  0.00    +0.000 OA
BRANCH  30  32
ATOM     32  C41 UNK     0       2.928  -0.504  -1.938  0.00  0.00    +0.000 C 
BRANCH  32  33
ATOM     33  O12 UNK     0       2.436  -1.806  -1.763  0.00  0.00    +0.000 OA
ATOM     34  H95 UNK     0       2.906  -2.381  -2.428  0.00  0.00    +0.000 HD
ENDBRANCH  32  33
BRANCH  32  35
ATOM     35  C44 UNK     0       4.221  -0.300  -1.105  0.00  0.00    +0.000 C 
BRANCH  35  36
ATOM     36  C48 UNK     0       4.796   1.085  -1.299  0.00  0.00    +0.000 A 
ATOM     37  C50 UNK     0       4.656   2.051  -0.287  0.00  0.00    +0.000 A 
ATOM     38  C53 UNK     0       5.130   3.352  -0.480  0.00  0.00    +0.000 A 
ATOM     39  C54 UNK     0       5.751   3.699  -1.685  0.00  0.00    +0.000 A 
ATOM     40  C52 UNK     0       5.909   2.739  -2.693  0.00  0.00    +0.000 A 
ATOM     41  C49 UNK     0       5.431   1.437  -2.505  0.00  0.00    +0.000 A 
ENDBRANCH  35  36
BRANCH  35  42
ATOM     42  N15 UNK     0       5.222  -1.315  -1.450  0.00  0.00    +0.000 N 
ATOM     43  C51 UNK     0       6.139  -1.845  -0.488  0.00  0.00    +0.000 C 
ATOM     44  O14 UNK     0       6.139  -1.405   0.694  0.00  0.00    +0.000 OA
ATOM     45  H97 UNK     0       5.313  -1.627  -2.446  0.00  0.00    +0.000 HD
BRANCH  43  46
ATOM     46  O13 UNK     0       7.013  -2.869  -0.874  0.00  0.00    +0.000 OA
BRANCH  46  47
ATOM     47  C55 UNK     0       7.844  -3.643   0.002  0.00  0.00    +0.000 C 
ATOM     48  C56 UNK     0       8.882  -2.754   0.708  0.00  0.00    +0.000 C 
ATOM     49  C57 UNK     0       6.977  -4.387   1.037  0.00  0.00    +0.000 C 
ATOM     50  C58 UNK     0       8.580  -4.675  -0.863  0.00  0.00    +0.000 C 
ENDBRANCH  46  47
ENDBRANCH  43  46
ENDBRANCH  35  42
ENDBRANCH  32  35
ENDBRANCH  30  32
ENDBRANCH  29  30
ENDBRANCH  18  29
BRANCH   7  51
ATOM     51  O3  UNK     0      -3.853   1.272  -0.843  0.00  0.00    +0.000 OA
BRANCH  51  52
ATOM     52  C37 UNK     0      -4.910   2.104  -1.255  0.00  0.00    +0.000 C 
ATOM     53  O10 UNK     0      -5.443   2.917  -0.441  0.00  0.00    +0.000 OA
BRANCH  52  54
ATOM     54  C40 UNK     0      -5.420   2.043  -2.637  0.00  0.00    +0.000 A 
ATOM     55  C42 UNK     0      -4.562   1.732  -3.714  0.00  0.00    +0.000 A 
ATOM     56  C45 UNK     0      -5.068   1.599  -5.014  0.00  0.00    +0.000 A 
ATOM     57  C47 UNK     0      -6.433   1.812  -5.256  0.00  0.00    +0.000 A 
ATOM     58  C46 UNK     0      -7.291   2.164  -4.196  0.00  0.00    +0.000 A 
ATOM     59  C43 UNK     0      -6.785   2.284  -2.897  0.00  0.00    +0.000 A 
ENDBRANCH  52  54
ENDBRANCH  51  52
ENDBRANCH   7  51
BRANCH   4  60
ATOM     60  O2  UNK     0      -2.464  -1.809  -0.758  0.00  0.00    +0.000 OA
BRANCH  60  61
ATOM     61  C36 UNK     0      -2.126  -1.402  -2.053  0.00  0.00    +0.000 C 
ATOM     62  C38 UNK     0      -0.952  -2.029  -2.725  0.00  0.00    +0.000 C 
ATOM     63  O9  UNK     0      -2.781  -0.514  -2.664  0.00  0.00    +0.000 OA
ENDBRANCH  60  61
ENDBRANCH   4  60
TORSDOF 17
