REMARK  Name = C:\Users\Maximilian\Desktop\Conformers\converted_pdb\conformers_pdb\Docetaxel_conf_3.pdb
REMARK  25 active torsions:
REMARK  status: ('A' for Active; 'I' for Inactive)
REMARK    1  A    between atoms: C17_4  and  O2_58
REMARK    2  A    between atoms: C18_5  and  C29_16
REMARK    3  A    between atoms: C20_7  and  O3_47
REMARK    4  A    between atoms: C21_8  and  O4_45
REMARK    5  A    between atoms: C22_9  and  O5_62
REMARK    6  A    between atoms: C24_11  and  C33_20
REMARK    7  A    between atoms: C24_11  and  C34_21
REMARK    8  A    between atoms: C30_17  and  O7_56
REMARK    9  A    between atoms: C31_18  and  O8_23
REMARK   10  A    between atoms: C32_19  and  C35_22
REMARK   11  A    between atoms: O8_23  and  C39_24
REMARK   12  A    between atoms: C39_24  and  C41_26
REMARK   13  A    between atoms: C41_26  and  O12_27
REMARK   14  A    between atoms: C41_26  and  C44_29
REMARK   15  A    between atoms: C44_29  and  C48_30
REMARK   16  A    between atoms: C44_29  and  N15_36
REMARK   17  A    between atoms: C51_37  and  O13_40
REMARK   18  A    between atoms: O13_40  and  C55_41
REMARK   19  A    between atoms: C55_41  and  C56_42
REMARK   20  A    between atoms: C55_41  and  C57_43
REMARK   21  A    between atoms: C55_41  and  C58_44
REMARK   22  A    between atoms: O3_47  and  C37_48
REMARK   23  A    between atoms: C37_48  and  C40_50
REMARK   24  A    between atoms: O2_58  and  C36_59
REMARK   25  A    between atoms: C36_59  and  C38_60
REMARK                            x       y       z     vdW  Elec       q    Type
REMARK                         _______ _______ _______ _____ _____    ______ ____
ROOT
ATOM      1  O1  UNK     0      -6.116   2.031  -0.190  0.00  0.00    +0.000 OA
ATOM      2  O6  UNK     0      -0.375   2.608  -0.890  0.00  0.00    +0.000 OA
ATOM      3  C16 UNK     0      -3.125   0.776  -0.714  0.00  0.00    +0.000 C 
ATOM      4  C17 UNK     0      -4.570   0.577  -0.135  0.00  0.00    +0.000 C 
ATOM      5  C18 UNK     0      -2.731   2.288  -1.122  0.00  0.00    +0.000 C 
ATOM      6  C19 UNK     0      -5.070   1.743   0.723  0.00  0.00    +0.000 C 
ATOM      7  C20 UNK     0      -2.323  -0.570  -1.137  0.00  0.00    +0.000 C 
ATOM      8  C21 UNK     0      -2.119  -1.252  -2.586  0.00  0.00    +0.000 C 
ATOM      9  C22 UNK     0      -2.797   3.121   0.206  0.00  0.00    +0.000 C 
ATOM     10  C23 UNK     0      -4.163   2.990   0.984  0.00  0.00    +0.000 C 
ATOM     11  C24 UNK     0      -1.894  -0.262  -3.768  0.00  0.00    +0.000 C 
ATOM     12  C25 UNK     0      -5.762   0.935  -1.012  0.00  0.00    +0.000 C 
ATOM     13  C26 UNK     0      -1.287   2.367  -1.661  0.00  0.00    +0.000 C 
ATOM     14  C27 UNK     0      -0.883  -2.217  -2.551  0.00  0.00    +0.000 C 
ATOM     15  C28 UNK     0      -0.718   0.636  -3.331  0.00  0.00    +0.000 C 
ATOM     16  C29 UNK     0      -3.690   3.060  -2.089  0.00  0.00    +0.000 C 
ATOM     17  C30 UNK     0      -0.862   2.132  -3.103  0.00  0.00    +0.000 C 
ATOM     18  C31 UNK     0       0.500  -1.489  -2.648  0.00  0.00    +0.000 C 
ATOM     19  C32 UNK     0       0.441   0.020  -2.911  0.00  0.00    +0.000 C 
ATOM     20  C33 UNK     0      -1.486  -0.966  -5.106  0.00  0.00    +0.000 C 
ATOM     21  C34 UNK     0      -3.261   0.373  -4.109  0.00  0.00    +0.000 C 
ATOM     22  C35 UNK     0       1.737   0.773  -2.724  0.00  0.00    +0.000 C 
ENDROOT
BRANCH   8  23
ATOM     23  O4  UNK     0      -3.257  -2.040  -2.869  0.00  0.00    +0.000 OA
ATOM     24  H80 UNK     0      -3.246  -2.853  -2.300  0.00  0.00    +0.000 HD
ENDBRANCH   8  23
BRANCH  17  25
ATOM     25  O7  UNK     0      -1.682   2.765  -4.031  0.00  0.00    +0.000 OA
ATOM     26  H85 UNK     0      -1.241   2.684  -4.920  0.00  0.00    +0.000 HD
ENDBRANCH  17  25
BRANCH   9  27
ATOM     27  O5  UNK     0      -2.446   4.475  -0.033  0.00  0.00    +0.000 OA
ATOM     28  H81 UNK     0      -3.276   5.007  -0.132  0.00  0.00    +0.000 HD
ENDBRANCH   9  27
BRANCH  18  29
ATOM     29  O8  UNK     0       1.222  -1.719  -1.436  0.00  0.00    +0.000 OA
BRANCH  29  30
ATOM     30  C39 UNK     0       1.908  -2.913  -1.149  0.00  0.00    +0.000 C 
ATOM     31  O11 UNK     0       2.056  -3.792  -2.035  0.00  0.00    +0.000 OA
BRANCH  30  32
ATOM     32  C41 UNK     0       2.396  -3.181   0.249  0.00  0.00    +0.000 C 
BRANCH  32  33
ATOM     33  O12 UNK     0       1.415  -2.802   1.173  0.00  0.00    +0.000 OA
ATOM     34  H95 UNK     0       0.802  -3.579   1.277  0.00  0.00    +0.000 HD
ENDBRANCH  32  33
BRANCH  32  35
ATOM     35  C44 UNK     0       3.723  -2.449   0.574  0.00  0.00    +0.000 C 
BRANCH  35  36
ATOM     36  C48 UNK     0       4.181  -2.858   1.971  0.00  0.00    +0.000 A 
ATOM     37  C50 UNK     0       5.009  -3.976   2.139  0.00  0.00    +0.000 A 
ATOM     38  C53 UNK     0       5.379  -4.405   3.420  0.00  0.00    +0.000 A 
ATOM     39  C54 UNK     0       4.907  -3.718   4.549  0.00  0.00    +0.000 A 
ATOM     40  C52 UNK     0       4.060  -2.612   4.399  0.00  0.00    +0.000 A 
ATOM     41  C49 UNK     0       3.679  -2.200   3.116  0.00  0.00    +0.000 A 
ENDBRANCH  35  36
BRANCH  35  42
ATOM     42  N15 UNK     0       3.612  -0.988   0.460  0.00  0.00    +0.000 N 
ATOM     43  C51 UNK     0       4.728  -0.119   0.727  0.00  0.00    +0.000 C 
ATOM     44  O14 UNK     0       5.865  -0.603   0.989  0.00  0.00    +0.000 OA
ATOM     45  H97 UNK     0       2.686  -0.546   0.265  0.00  0.00    +0.000 HD
BRANCH  43  46
ATOM     46  O13 UNK     0       4.540   1.264   0.690  0.00  0.00    +0.000 OA
BRANCH  46  47
ATOM     47  C55 UNK     0       5.400   2.247   1.294  0.00  0.00    +0.000 C 
ATOM     48  C56 UNK     0       5.435   2.045   2.817  0.00  0.00    +0.000 C 
ATOM     49  C57 UNK     0       6.820   2.181   0.701  0.00  0.00    +0.000 C 
ATOM     50  C58 UNK     0       4.801   3.627   0.983  0.00  0.00    +0.000 C 
ENDBRANCH  46  47
ENDBRANCH  43  46
ENDBRANCH  35  42
ENDBRANCH  32  35
ENDBRANCH  30  32
ENDBRANCH  29  30
ENDBRANCH  18  29
BRANCH   7  51
ATOM     51  O3  UNK     0      -1.100  -0.617  -0.372  0.00  0.00    +0.000 OA
BRANCH  51  52
ATOM     52  C37 UNK     0      -1.075  -1.266   0.878  0.00  0.00    +0.000 C 
ATOM     53  O10 UNK     0      -1.541  -2.434   0.978  0.00  0.00    +0.000 OA
BRANCH  52  54
ATOM     54  C40 UNK     0      -0.612  -0.563   2.083  0.00  0.00    +0.000 A 
ATOM     55  C42 UNK     0      -1.099  -0.939   3.352  0.00  0.00    +0.000 A 
ATOM     56  C45 UNK     0      -0.687  -0.260   4.488  0.00  0.00    +0.000 A 
ATOM     57  C47 UNK     0       0.230   0.790   4.387  0.00  0.00    +0.000 A 
ATOM     58  C46 UNK     0       0.727   1.176   3.136  0.00  0.00    +0.000 A 
ATOM     59  C43 UNK     0       0.308   0.494   1.985  0.00  0.00    +0.000 A 
ENDBRANCH  52  54
ENDBRANCH  51  52
ENDBRANCH   7  51
BRANCH   4  60
ATOM     60  O2  UNK     0      -4.705  -0.694   0.530  0.00  0.00    +0.000 OA
BRANCH  60  61
ATOM     61  C36 UNK     0      -5.856  -1.269   1.098  0.00  0.00    +0.000 C 
ATOM     62  C38 UNK     0      -5.857  -2.727   1.384  0.00  0.00    +0.000 C 
ATOM     63  O9  UNK     0      -6.873  -0.577   1.370  0.00  0.00    +0.000 OA
ENDBRANCH  60  61
ENDBRANCH   4  60
TORSDOF 17
