REMARK  Name = C:\Users\Maximilian\Desktop\Conformers\converted_pdb\conformers_pdb\Docetaxel_conf_26.pdb
REMARK  25 active torsions:
REMARK  status: ('A' for Active; 'I' for Inactive)
REMARK    1  A    between atoms: C17_4  and  O2_58
REMARK    2  A    between atoms: C18_5  and  C29_16
REMARK    3  A    between atoms: C20_7  and  O3_47
REMARK    4  A    between atoms: C21_8  and  O4_45
REMARK    5  A    between atoms: C22_9  and  O5_62
REMARK    6  A    between atoms: C24_11  and  C33_20
REMARK    7  A    between atoms: C24_11  and  C34_21
REMARK    8  A    between atoms: C30_17  and  O7_56
REMARK    9  A    between atoms: C31_18  and  O8_23
REMARK   10  A    between atoms: C32_19  and  C35_22
REMARK   11  A    between atoms: O8_23  and  C39_24
REMARK   12  A    between atoms: C39_24  and  C41_26
REMARK   13  A    between atoms: C41_26  and  O12_27
REMARK   14  A    between atoms: C41_26  and  C44_29
REMARK   15  A    between atoms: C44_29  and  C48_30
REMARK   16  A    between atoms: C44_29  and  N15_36
REMARK   17  A    between atoms: C51_37  and  O13_40
REMARK   18  A    between atoms: O13_40  and  C55_41
REMARK   19  A    between atoms: C55_41  and  C56_42
REMARK   20  A    between atoms: C55_41  and  C57_43
REMARK   21  A    between atoms: C55_41  and  C58_44
REMARK   22  A    between atoms: O3_47  and  C37_48
REMARK   23  A    between atoms: C37_48  and  C40_50
REMARK   24  A    between atoms: O2_58  and  C36_59
REMARK   25  A    between atoms: C36_59  and  C38_60
REMARK                            x       y       z     vdW  Elec       q    Type
REMARK                         _______ _______ _______ _____ _____    ______ ____
ROOT
ATOM      1  O1  UNK     0      -6.107  -0.740  -2.785  0.00  0.00    +0.000 OA
ATOM      2  O6  UNK     0      -0.528  -2.175  -0.964  0.00  0.00    +0.000 OA
ATOM      3  C16 UNK     0      -3.477  -0.641  -0.461  0.00  0.00    +0.000 C 
ATOM      4  C17 UNK     0      -4.883  -0.219  -1.108  0.00  0.00    +0.000 C 
ATOM      5  C18 UNK     0      -2.903  -2.022  -1.064  0.00  0.00    +0.000 C 
ATOM      6  C19 UNK     0      -4.814  -0.204  -2.653  0.00  0.00    +0.000 C 
ATOM      7  C20 UNK     0      -3.223   0.081   0.973  0.00  0.00    +0.000 C 
ATOM      8  C21 UNK     0      -1.985  -0.182   1.950  0.00  0.00    +0.000 C 
ATOM      9  C22 UNK     0      -2.623  -1.704  -2.592  0.00  0.00    +0.000 C 
ATOM     10  C23 UNK     0      -3.857  -1.187  -3.380  0.00  0.00    +0.000 C 
ATOM     11  C24 UNK     0      -1.988  -1.617   2.665  0.00  0.00    +0.000 C 
ATOM     12  C25 UNK     0      -6.122  -1.081  -1.408  0.00  0.00    +0.000 C 
ATOM     13  C26 UNK     0      -1.579  -2.500  -0.436  0.00  0.00    +0.000 C 
ATOM     14  C27 UNK     0      -0.635   0.140   1.199  0.00  0.00    +0.000 C 
ATOM     15  C28 UNK     0      -1.005  -2.539   1.924  0.00  0.00    +0.000 C 
ATOM     16  C29 UNK     0      -3.870  -3.236  -1.050  0.00  0.00    +0.000 C 
ATOM     17  C30 UNK     0      -1.446  -3.409   0.773  0.00  0.00    +0.000 C 
ATOM     18  C31 UNK     0       0.597  -0.640   1.719  0.00  0.00    +0.000 C 
ATOM     19  C32 UNK     0       0.290  -2.126   1.841  0.00  0.00    +0.000 C 
ATOM     20  C33 UNK     0      -1.484  -1.545   4.144  0.00  0.00    +0.000 C 
ATOM     21  C34 UNK     0      -3.431  -2.197   2.796  0.00  0.00    +0.000 C 
ATOM     22  C35 UNK     0       1.405  -3.136   1.712  0.00  0.00    +0.000 C 
ENDROOT
BRANCH   8  23
ATOM     23  O4  UNK     0      -2.116   0.754   3.001  0.00  0.00    +0.000 OA
ATOM     24  H80 UNK     0      -1.836   1.671   2.740  0.00  0.00    +0.000 HD
ENDBRANCH   8  23
BRANCH  17  25
ATOM     25  O7  UNK     0      -2.591  -4.145   1.099  0.00  0.00    +0.000 OA
ATOM     26  H85 UNK     0      -2.370  -5.113   0.958  0.00  0.00    +0.000 HD
ENDBRANCH  17  25
BRANCH   9  27
ATOM     27  O5  UNK     0      -2.012  -2.835  -3.202  0.00  0.00    +0.000 OA
ATOM     28  H81 UNK     0      -2.704  -3.380  -3.660  0.00  0.00    +0.000 HD
ENDBRANCH   9  27
BRANCH  18  29
ATOM     29  O8  UNK     0       1.656  -0.493   0.761  0.00  0.00    +0.000 OA
BRANCH  29  30
ATOM     30  C39 UNK     0       2.485   0.629   0.672  0.00  0.00    +0.000 C 
ATOM     31  O11 UNK     0       2.439   1.531   1.560  0.00  0.00    +0.000 OA
BRANCH  30  32
ATOM     32  C41 UNK     0       3.474   0.746  -0.476  0.00  0.00    +0.000 C 
BRANCH  32  33
ATOM     33  O12 UNK     0       2.938   0.142  -1.626  0.00  0.00    +0.000 OA
ATOM     34  H95 UNK     0       2.691  -0.788  -1.406  0.00  0.00    +0.000 HD
ENDBRANCH  32  33
BRANCH  32  35
ATOM     35  C44 UNK     0       4.890   0.149  -0.176  0.00  0.00    +0.000 C 
BRANCH  35  36
ATOM     36  C48 UNK     0       5.144  -0.012   1.303  0.00  0.00    +0.000 A 
ATOM     37  C50 UNK     0       5.419   1.119   2.090  0.00  0.00    +0.000 A 
ATOM     38  C53 UNK     0       5.656   0.979   3.459  0.00  0.00    +0.000 A 
ATOM     39  C54 UNK     0       5.579  -0.281   4.068  0.00  0.00    +0.000 A 
ATOM     40  C52 UNK     0       5.245  -1.398   3.303  0.00  0.00    +0.000 A 
ATOM     41  C49 UNK     0       5.018  -1.268   1.926  0.00  0.00    +0.000 A 
ENDBRANCH  35  36
BRANCH  35  42
ATOM     42  N15 UNK     0       5.954   0.968  -0.766  0.00  0.00    +0.000 N 
ATOM     43  C51 UNK     0       6.029   1.318  -2.153  0.00  0.00    +0.000 C 
ATOM     44  O14 UNK     0       5.017   1.772  -2.737  0.00  0.00    +0.000 OA
ATOM     45  H97 UNK     0       6.880   0.991  -0.241  0.00  0.00    +0.000 HD
BRANCH  43  46
ATOM     46  O13 UNK     0       7.295   1.549  -2.714  0.00  0.00    +0.000 OA
BRANCH  46  47
ATOM     47  C55 UNK     0       8.058   0.522  -3.374  0.00  0.00    +0.000 C 
ATOM     48  C56 UNK     0       7.345   0.065  -4.668  0.00  0.00    +0.000 C 
ATOM     49  C57 UNK     0       9.428   1.118  -3.729  0.00  0.00    +0.000 C 
ATOM     50  C58 UNK     0       8.254  -0.703  -2.438  0.00  0.00    +0.000 C 
ENDBRANCH  46  47
ENDBRANCH  43  46
ENDBRANCH  35  42
ENDBRANCH  32  35
ENDBRANCH  30  32
ENDBRANCH  29  30
ENDBRANCH  18  29
BRANCH   7  51
ATOM     51  O3  UNK     0      -3.172   1.501   0.673  0.00  0.00    +0.000 OA
BRANCH  51  52
ATOM     52  C37 UNK     0      -3.793   2.536   1.382  0.00  0.00    +0.000 C 
ATOM     53  O10 UNK     0      -4.323   2.310   2.509  0.00  0.00    +0.000 OA
BRANCH  52  54
ATOM     54  C40 UNK     0      -3.866   3.869   0.765  0.00  0.00    +0.000 A 
ATOM     55  C42 UNK     0      -4.499   4.937   1.417  0.00  0.00    +0.000 A 
ATOM     56  C45 UNK     0      -4.622   6.170   0.779  0.00  0.00    +0.000 A 
ATOM     57  C47 UNK     0      -4.118   6.354  -0.516  0.00  0.00    +0.000 A 
ATOM     58  C46 UNK     0      -3.477   5.296  -1.161  0.00  0.00    +0.000 A 
ATOM     59  C43 UNK     0      -3.355   4.061  -0.530  0.00  0.00    +0.000 A 
ENDBRANCH  52  54
ENDBRANCH  51  52
ENDBRANCH   7  51
BRANCH   4  60
ATOM     60  O2  UNK     0      -5.357   1.071  -0.632  0.00  0.00    +0.000 OA
BRANCH  60  61
ATOM     61  C36 UNK     0      -6.305   1.199   0.408  0.00  0.00    +0.000 C 
ATOM     62  C38 UNK     0      -7.107   2.472   0.536  0.00  0.00    +0.000 C 
ATOM     63  O9  UNK     0      -6.502   0.241   1.218  0.00  0.00    +0.000 OA
ENDBRANCH  60  61
ENDBRANCH   4  60
TORSDOF 17
