REMARK  Name = C:\Users\Maximilian\Desktop\Conformers\converted_pdb\conformers_pdb\Docetaxel_conf_69.pdb
REMARK  25 active torsions:
REMARK  status: ('A' for Active; 'I' for Inactive)
REMARK    1  A    between atoms: C17_4  and  O2_58
REMARK    2  A    between atoms: C18_5  and  C29_16
REMARK    3  A    between atoms: C20_7  and  O3_47
REMARK    4  A    between atoms: C21_8  and  O4_45
REMARK    5  A    between atoms: C22_9  and  O5_62
REMARK    6  A    between atoms: C24_11  and  C33_20
REMARK    7  A    between atoms: C24_11  and  C34_21
REMARK    8  A    between atoms: C30_17  and  O7_56
REMARK    9  A    between atoms: C31_18  and  O8_23
REMARK   10  A    between atoms: C32_19  and  C35_22
REMARK   11  A    between atoms: O8_23  and  C39_24
REMARK   12  A    between atoms: C39_24  and  C41_26
REMARK   13  A    between atoms: C41_26  and  O12_27
REMARK   14  A    between atoms: C41_26  and  C44_29
REMARK   15  A    between atoms: C44_29  and  C48_30
REMARK   16  A    between atoms: C44_29  and  N15_36
REMARK   17  A    between atoms: C51_37  and  O13_40
REMARK   18  A    between atoms: O13_40  and  C55_41
REMARK   19  A    between atoms: C55_41  and  C56_42
REMARK   20  A    between atoms: C55_41  and  C57_43
REMARK   21  A    between atoms: C55_41  and  C58_44
REMARK   22  A    between atoms: O3_47  and  C37_48
REMARK   23  A    between atoms: C37_48  and  C40_50
REMARK   24  A    between atoms: O2_58  and  C36_59
REMARK   25  A    between atoms: C36_59  and  C38_60
REMARK                            x       y       z     vdW  Elec       q    Type
REMARK                         _______ _______ _______ _____ _____    ______ ____
ROOT
ATOM      1  O1  UNK     0      -3.671   0.290  -3.293  0.00  0.00    +0.000 OA
ATOM      2  O6  UNK     0      -1.031  -4.647  -1.030  0.00  0.00    +0.000 OA
ATOM      3  C16 UNK     0      -2.373  -1.334  -0.510  0.00  0.00    +0.000 C 
ATOM      4  C17 UNK     0      -2.458  -0.161  -1.595  0.00  0.00    +0.000 C 
ATOM      5  C18 UNK     0      -2.624  -2.827  -1.094  0.00  0.00    +0.000 C 
ATOM      6  C19 UNK     0      -2.494  -0.458  -3.096  0.00  0.00    +0.000 C 
ATOM      7  C20 UNK     0      -3.131  -0.863   0.847  0.00  0.00    +0.000 C 
ATOM      8  C21 UNK     0      -2.373  -0.917   2.258  0.00  0.00    +0.000 C 
ATOM      9  C22 UNK     0      -2.135  -2.885  -2.598  0.00  0.00    +0.000 C 
ATOM     10  C23 UNK     0      -2.799  -1.884  -3.512  0.00  0.00    +0.000 C 
ATOM     11  C24 UNK     0      -2.319  -2.355   2.877  0.00  0.00    +0.000 C 
ATOM     12  C25 UNK     0      -3.824   0.461  -1.910  0.00  0.00    +0.000 C 
ATOM     13  C26 UNK     0      -1.792  -3.950  -0.373  0.00  0.00    +0.000 C 
ATOM     14  C27 UNK     0      -0.925  -0.292   2.139  0.00  0.00    +0.000 C 
ATOM     15  C28 UNK     0      -1.388  -3.164   1.955  0.00  0.00    +0.000 C 
ATOM     16  C29 UNK     0      -4.123  -3.217  -1.046  0.00  0.00    +0.000 C 
ATOM     17  C30 UNK     0      -1.854  -4.330   1.092  0.00  0.00    +0.000 C 
ATOM     18  C31 UNK     0       0.262  -1.289   2.238  0.00  0.00    +0.000 C 
ATOM     19  C32 UNK     0      -0.110  -2.686   1.771  0.00  0.00    +0.000 C 
ATOM     20  C33 UNK     0      -1.705  -2.335   4.327  0.00  0.00    +0.000 C 
ATOM     21  C34 UNK     0      -3.758  -2.927   3.097  0.00  0.00    +0.000 C 
ATOM     22  C35 UNK     0       0.988  -3.526   1.138  0.00  0.00    +0.000 C 
ENDROOT
BRANCH   8  23
ATOM     23  O4  UNK     0      -3.113  -0.141   3.187  0.00  0.00    +0.000 OA
ATOM     24  H80 UNK     0      -2.949   0.827   3.033  0.00  0.00    +0.000 HD
ENDBRANCH   8  23
BRANCH  17  25
ATOM     25  O7  UNK     0      -3.109  -4.858   1.411  0.00  0.00    +0.000 OA
ATOM     26  H85 UNK     0      -3.215  -5.705   0.902  0.00  0.00    +0.000 HD
ENDBRANCH  17  25
BRANCH   9  27
ATOM     27  O5  UNK     0      -2.362  -4.162  -3.157  0.00  0.00    +0.000 OA
ATOM     28  H81 UNK     0      -1.582  -4.374  -3.730  0.00  0.00    +0.000 HD
ENDBRANCH   9  27
BRANCH  18  29
ATOM     29  O8  UNK     0       1.375  -0.798   1.486  0.00  0.00    +0.000 OA
BRANCH  29  30
ATOM     30  C39 UNK     0       2.194   0.249   1.923  0.00  0.00    +0.000 C 
ATOM     31  O11 UNK     0       1.755   1.103   2.742  0.00  0.00    +0.000 OA
BRANCH  30  32
ATOM     32  C41 UNK     0       3.619   0.323   1.433  0.00  0.00    +0.000 C 
BRANCH  32  33
ATOM     33  O12 UNK     0       4.394   1.124   2.293  0.00  0.00    +0.000 OA
ATOM     34  H95 UNK     0       4.080   2.060   2.202  0.00  0.00    +0.000 HD
ENDBRANCH  32  33
BRANCH  32  35
ATOM     35  C44 UNK     0       3.719   0.826  -0.031  0.00  0.00    +0.000 C 
BRANCH  35  36
ATOM     36  C48 UNK     0       2.967  -0.051  -1.020  0.00  0.00    +0.000 A 
ATOM     37  C50 UNK     0       2.076   0.539  -1.934  0.00  0.00    +0.000 A 
ATOM     38  C53 UNK     0       1.412  -0.241  -2.882  0.00  0.00    +0.000 A 
ATOM     39  C54 UNK     0       1.627  -1.619  -2.932  0.00  0.00    +0.000 A 
ATOM     40  C52 UNK     0       2.523  -2.216  -2.044  0.00  0.00    +0.000 A 
ATOM     41  C49 UNK     0       3.197  -1.438  -1.098  0.00  0.00    +0.000 A 
ENDBRANCH  35  36
BRANCH  35  42
ATOM     42  N15 UNK     0       5.128   0.897  -0.435  0.00  0.00    +0.000 N 
ATOM     43  C51 UNK     0       5.878   2.118  -0.482  0.00  0.00    +0.000 C 
ATOM     44  O14 UNK     0       5.321   3.218  -0.220  0.00  0.00    +0.000 OA
ATOM     45  H97 UNK     0       5.648   0.006  -0.591  0.00  0.00    +0.000 HD
BRANCH  43  46
ATOM     46  O13 UNK     0       7.237   2.062  -0.825  0.00  0.00    +0.000 OA
BRANCH  46  47
ATOM     47  C55 UNK     0       8.146   3.172  -0.886  0.00  0.00    +0.000 C 
ATOM     48  C56 UNK     0       9.515   2.613  -1.301  0.00  0.00    +0.000 C 
ATOM     49  C57 UNK     0       7.683   4.194  -1.945  0.00  0.00    +0.000 C 
ATOM     50  C58 UNK     0       8.279   3.840   0.496  0.00  0.00    +0.000 C 
ENDBRANCH  46  47
ENDBRANCH  43  46
ENDBRANCH  35  42
ENDBRANCH  32  35
ENDBRANCH  30  32
ENDBRANCH  29  30
ENDBRANCH  18  29
BRANCH   7  51
ATOM     51  O3  UNK     0      -3.563   0.499   0.715  0.00  0.00    +0.000 OA
BRANCH  51  52
ATOM     52  C37 UNK     0      -4.819   0.993   1.106  0.00  0.00    +0.000 C 
ATOM     53  O10 UNK     0      -5.708   0.211   1.543  0.00  0.00    +0.000 OA
BRANCH  52  54
ATOM     54  C40 UNK     0      -5.089   2.440   1.001  0.00  0.00    +0.000 A 
ATOM     55  C42 UNK     0      -6.387   2.947   1.189  0.00  0.00    +0.000 A 
ATOM     56  C45 UNK     0      -6.632   4.320   1.080  0.00  0.00    +0.000 A 
ATOM     57  C47 UNK     0      -5.586   5.196   0.777  0.00  0.00    +0.000 A 
ATOM     58  C46 UNK     0      -4.293   4.704   0.595  0.00  0.00    +0.000 A 
ATOM     59  C43 UNK     0      -4.042   3.334   0.707  0.00  0.00    +0.000 A 
ENDBRANCH  52  54
ENDBRANCH  51  52
ENDBRANCH   7  51
BRANCH   4  60
ATOM     60  O2  UNK     0      -1.483   0.847  -1.252  0.00  0.00    +0.000 OA
BRANCH  60  61
ATOM     61  C36 UNK     0      -1.284   2.105  -1.850  0.00  0.00    +0.000 C 
ATOM     62  C38 UNK     0      -0.410   3.102  -1.167  0.00  0.00    +0.000 C 
ATOM     63  O9  UNK     0      -1.847   2.420  -2.934  0.00  0.00    +0.000 OA
ENDBRANCH  60  61
ENDBRANCH   4  60
TORSDOF 17
