REMARK  Name = C:\Users\Maximilian\Desktop\Conformers\converted_pdb\conformers_pdb\Docetaxel_conf_8.pdb
REMARK  25 active torsions:
REMARK  status: ('A' for Active; 'I' for Inactive)
REMARK    1  A    between atoms: C17_4  and  O2_58
REMARK    2  A    between atoms: C18_5  and  C29_16
REMARK    3  A    between atoms: C20_7  and  O3_47
REMARK    4  A    between atoms: C21_8  and  O4_45
REMARK    5  A    between atoms: C22_9  and  O5_62
REMARK    6  A    between atoms: C24_11  and  C33_20
REMARK    7  A    between atoms: C24_11  and  C34_21
REMARK    8  A    between atoms: C30_17  and  O7_56
REMARK    9  A    between atoms: C31_18  and  O8_23
REMARK   10  A    between atoms: C32_19  and  C35_22
REMARK   11  A    between atoms: O8_23  and  C39_24
REMARK   12  A    between atoms: C39_24  and  C41_26
REMARK   13  A    between atoms: C41_26  and  O12_27
REMARK   14  A    between atoms: C41_26  and  C44_29
REMARK   15  A    between atoms: C44_29  and  C48_30
REMARK   16  A    between atoms: C44_29  and  N15_36
REMARK   17  A    between atoms: C51_37  and  O13_40
REMARK   18  A    between atoms: O13_40  and  C55_41
REMARK   19  A    between atoms: C55_41  and  C56_42
REMARK   20  A    between atoms: C55_41  and  C57_43
REMARK   21  A    between atoms: C55_41  and  C58_44
REMARK   22  A    between atoms: O3_47  and  C37_48
REMARK   23  A    between atoms: C37_48  and  C40_50
REMARK   24  A    between atoms: O2_58  and  C36_59
REMARK   25  A    between atoms: C36_59  and  C38_60
REMARK                            x       y       z     vdW  Elec       q    Type
REMARK                         _______ _______ _______ _____ _____    ______ ____
ROOT
ATOM      1  O1  UNK     0       5.163  -0.468  -2.330  0.00  0.00    +0.000 OA
ATOM      2  O6  UNK     0       2.371   4.454  -3.303  0.00  0.00    +0.000 OA
ATOM      3  C16 UNK     0       2.866   1.523  -1.205  0.00  0.00    +0.000 C 
ATOM      4  C17 UNK     0       3.641   0.163  -1.002  0.00  0.00    +0.000 C 
ATOM      5  C18 UNK     0       3.225   2.329  -2.553  0.00  0.00    +0.000 C 
ATOM      6  C19 UNK     0       3.771  -0.658  -2.272  0.00  0.00    +0.000 C 
ATOM      7  C20 UNK     0       2.767   2.402   0.119  0.00  0.00    +0.000 C 
ATOM      8  C21 UNK     0       1.319   2.709   0.718  0.00  0.00    +0.000 C 
ATOM      9  C22 UNK     0       3.334   1.356  -3.813  0.00  0.00    +0.000 C 
ATOM     10  C23 UNK     0       3.001  -0.119  -3.479  0.00  0.00    +0.000 C 
ATOM     11  C24 UNK     0       0.418   3.625  -0.223  0.00  0.00    +0.000 C 
ATOM     12  C25 UNK     0       5.155   0.191  -1.079  0.00  0.00    +0.000 C 
ATOM     13  C26 UNK     0       2.081   3.344  -2.887  0.00  0.00    +0.000 C 
ATOM     14  C27 UNK     0       0.574   1.365   1.064  0.00  0.00    +0.000 C 
ATOM     15  C28 UNK     0       0.047   2.734  -1.434  0.00  0.00    +0.000 C 
ATOM     16  C29 UNK     0       4.573   3.137  -2.386  0.00  0.00    +0.000 C 
ATOM     17  C30 UNK     0       0.589   3.000  -2.843  0.00  0.00    +0.000 C 
ATOM     18  C31 UNK     0      -0.735   1.083   0.279  0.00  0.00    +0.000 C 
ATOM     19  C32 UNK     0      -0.636   1.574  -1.165  0.00  0.00    +0.000 C 
ATOM     20  C33 UNK     0      -0.908   4.060   0.504  0.00  0.00    +0.000 C 
ATOM     21  C34 UNK     0       1.098   4.987  -0.590  0.00  0.00    +0.000 C 
ATOM     22  C35 UNK     0      -1.252   0.744  -2.266  0.00  0.00    +0.000 C 
ENDROOT
BRANCH   8  23
ATOM     23  O4  UNK     0       1.504   3.372   1.956  0.00  0.00    +0.000 OA
ATOM     24  H80 UNK     0       2.033   4.204   1.817  0.00  0.00    +0.000 HD
ENDBRANCH   8  23
BRANCH  17  25
ATOM     25  O7  UNK     0      -0.173   4.009  -3.445  0.00  0.00    +0.000 OA
ATOM     26  H85 UNK     0       0.010   3.981  -4.418  0.00  0.00    +0.000 HD
ENDBRANCH  17  25
BRANCH   9  27
ATOM     27  O5  UNK     0       4.563   1.485  -4.502  0.00  0.00    +0.000 OA
ATOM     28  H81 UNK     0       4.885   0.593  -4.789  0.00  0.00    +0.000 HD
ENDBRANCH   9  27
BRANCH  18  29
ATOM     29  O8  UNK     0      -0.990  -0.326   0.329  0.00  0.00    +0.000 OA
BRANCH  29  30
ATOM     30  C39 UNK     0      -2.238  -0.877   0.668  0.00  0.00    +0.000 C 
ATOM     31  O11 UNK     0      -3.208  -0.125   0.955  0.00  0.00    +0.000 OA
BRANCH  30  32
ATOM     32  C41 UNK     0      -2.390  -2.370   0.724  0.00  0.00    +0.000 C 
BRANCH  32  33
ATOM     33  O12 UNK     0      -1.244  -2.966   0.160  0.00  0.00    +0.000 OA
ATOM     34  H95 UNK     0      -0.700  -3.327   0.901  0.00  0.00    +0.000 HD
ENDBRANCH  32  33
BRANCH  32  35
ATOM     35  C44 UNK     0      -3.645  -2.902  -0.011  0.00  0.00    +0.000 C 
BRANCH  35  36
ATOM     36  C48 UNK     0      -3.784  -2.330  -1.418  0.00  0.00    +0.000 A 
ATOM     37  C50 UNK     0      -4.618  -1.229  -1.697  0.00  0.00    +0.000 A 
ATOM     38  C53 UNK     0      -4.644  -0.663  -2.975  0.00  0.00    +0.000 A 
ATOM     39  C54 UNK     0      -3.849  -1.187  -3.986  0.00  0.00    +0.000 A 
ATOM     40  C52 UNK     0      -3.007  -2.267  -3.726  0.00  0.00    +0.000 A 
ATOM     41  C49 UNK     0      -2.981  -2.839  -2.451  0.00  0.00    +0.000 A 
ENDBRANCH  35  36
BRANCH  35  42
ATOM     42  N15 UNK     0      -4.853  -2.677   0.802  0.00  0.00    +0.000 N 
ATOM     43  C51 UNK     0      -5.707  -3.724   1.271  0.00  0.00    +0.000 C 
ATOM     44  O14 UNK     0      -5.475  -4.918   0.939  0.00  0.00    +0.000 OA
ATOM     45  H97 UNK     0      -5.086  -1.715   1.130  0.00  0.00    +0.000 HD
BRANCH  43  46
ATOM     46  O13 UNK     0      -6.792  -3.403   2.110  0.00  0.00    +0.000 OA
BRANCH  46  47
ATOM     47  C55 UNK     0      -7.703  -4.336   2.714  0.00  0.00    +0.000 C 
ATOM     48  C56 UNK     0      -8.433  -5.160   1.643  0.00  0.00    +0.000 C 
ATOM     49  C57 UNK     0      -6.953  -5.266   3.688  0.00  0.00    +0.000 C 
ATOM     50  C58 UNK     0      -8.740  -3.519   3.497  0.00  0.00    +0.000 C 
ENDBRANCH  46  47
ENDBRANCH  43  46
ENDBRANCH  35  42
ENDBRANCH  32  35
ENDBRANCH  30  32
ENDBRANCH  29  30
ENDBRANCH  18  29
BRANCH   7  51
ATOM     51  O3  UNK     0       3.573   1.823   1.152  0.00  0.00    +0.000 OA
BRANCH  51  52
ATOM     52  C37 UNK     0       4.509   2.517   1.934  0.00  0.00    +0.000 C 
ATOM     53  O10 UNK     0       4.748   3.736   1.717  0.00  0.00    +0.000 OA
BRANCH  52  54
ATOM     54  C40 UNK     0       5.251   1.796   2.988  0.00  0.00    +0.000 A 
ATOM     55  C42 UNK     0       4.912   0.469   3.300  0.00  0.00    +0.000 A 
ATOM     56  C45 UNK     0       5.618  -0.230   4.283  0.00  0.00    +0.000 A 
ATOM     57  C47 UNK     0       6.644   0.395   4.986  0.00  0.00    +0.000 A 
ATOM     58  C46 UNK     0       6.990   1.715   4.688  0.00  0.00    +0.000 A 
ATOM     59  C43 UNK     0       6.289   2.421   3.703  0.00  0.00    +0.000 A 
ENDBRANCH  52  54
ENDBRANCH  51  52
ENDBRANCH   7  51
BRANCH   4  60
ATOM     60  O2  UNK     0       3.128  -0.587   0.117  0.00  0.00    +0.000 OA
BRANCH  60  61
ATOM     61  C36 UNK     0       3.498  -1.868   0.565  0.00  0.00    +0.000 C 
ATOM     62  C38 UNK     0       2.824  -2.430   1.774  0.00  0.00    +0.000 C 
ATOM     63  O9  UNK     0       4.363  -2.557  -0.031  0.00  0.00    +0.000 OA
ENDBRANCH  60  61
ENDBRANCH   4  60
TORSDOF 17
