REMARK  Name = C:\Users\Maximilian\Desktop\Conformers\converted_pdb\conformers_pdb\Docetaxel_conf_38.pdb
REMARK  25 active torsions:
REMARK  status: ('A' for Active; 'I' for Inactive)
REMARK    1  A    between atoms: C17_4  and  O2_58
REMARK    2  A    between atoms: C18_5  and  C29_16
REMARK    3  A    between atoms: C20_7  and  O3_47
REMARK    4  A    between atoms: C21_8  and  O4_45
REMARK    5  A    between atoms: C22_9  and  O5_62
REMARK    6  A    between atoms: C24_11  and  C33_20
REMARK    7  A    between atoms: C24_11  and  C34_21
REMARK    8  A    between atoms: C30_17  and  O7_56
REMARK    9  A    between atoms: C31_18  and  O8_23
REMARK   10  A    between atoms: C32_19  and  C35_22
REMARK   11  A    between atoms: O8_23  and  C39_24
REMARK   12  A    between atoms: C39_24  and  C41_26
REMARK   13  A    between atoms: C41_26  and  O12_27
REMARK   14  A    between atoms: C41_26  and  C44_29
REMARK   15  A    between atoms: C44_29  and  C48_30
REMARK   16  A    between atoms: C44_29  and  N15_36
REMARK   17  A    between atoms: C51_37  and  O13_40
REMARK   18  A    between atoms: O13_40  and  C55_41
REMARK   19  A    between atoms: C55_41  and  C56_42
REMARK   20  A    between atoms: C55_41  and  C57_43
REMARK   21  A    between atoms: C55_41  and  C58_44
REMARK   22  A    between atoms: O3_47  and  C37_48
REMARK   23  A    between atoms: C37_48  and  C40_50
REMARK   24  A    between atoms: O2_58  and  C36_59
REMARK   25  A    between atoms: C36_59  and  C38_60
REMARK                            x       y       z     vdW  Elec       q    Type
REMARK                         _______ _______ _______ _____ _____    ______ ____
ROOT
ATOM      1  O1  UNK     0      -5.402  -1.259  -1.773  0.00  0.00    +0.000 OA
ATOM      2  O6  UNK     0      -2.599  -2.301   3.130  0.00  0.00    +0.000 OA
ATOM      3  C16 UNK     0      -3.382  -0.158   0.662  0.00  0.00    +0.000 C 
ATOM      4  C17 UNK     0      -3.583  -1.193  -0.582  0.00  0.00    +0.000 C 
ATOM      5  C18 UNK     0      -4.025  -0.703   2.057  0.00  0.00    +0.000 C 
ATOM      6  C19 UNK     0      -4.977  -1.894  -0.599  0.00  0.00    +0.000 C 
ATOM      7  C20 UNK     0      -3.299   1.422   0.400  0.00  0.00    +0.000 C 
ATOM      8  C21 UNK     0      -1.874   2.139   0.644  0.00  0.00    +0.000 C 
ATOM      9  C22 UNK     0      -4.912  -1.965   1.782  0.00  0.00    +0.000 C 
ATOM     10  C23 UNK     0      -5.838  -1.611   0.593  0.00  0.00    +0.000 C 
ATOM     11  C24 UNK     0      -1.468   2.187   2.195  0.00  0.00    +0.000 C 
ATOM     12  C25 UNK     0      -4.082  -0.805  -2.019  0.00  0.00    +0.000 C 
ATOM     13  C26 UNK     0      -2.856  -1.108   3.002  0.00  0.00    +0.000 C 
ATOM     14  C27 UNK     0      -0.753   1.378  -0.211  0.00  0.00    +0.000 C 
ATOM     15  C28 UNK     0      -1.059   0.746   2.637  0.00  0.00    +0.000 C 
ATOM     16  C29 UNK     0      -4.976   0.293   2.824  0.00  0.00    +0.000 C 
ATOM     17  C30 UNK     0      -1.861  -0.125   3.663  0.00  0.00    +0.000 C 
ATOM     18  C31 UNK     0       0.436   0.834   0.635  0.00  0.00    +0.000 C 
ATOM     19  C32 UNK     0      -0.062   0.148   1.903  0.00  0.00    +0.000 C 
ATOM     20  C33 UNK     0      -0.242   3.151   2.412  0.00  0.00    +0.000 C 
ATOM     21  C34 UNK     0      -2.586   2.859   3.039  0.00  0.00    +0.000 C 
ATOM     22  C35 UNK     0       0.655  -1.112   2.375  0.00  0.00    +0.000 C 
ENDROOT
BRANCH   8  23
ATOM     23  O4  UNK     0      -2.008   3.500   0.273  0.00  0.00    +0.000 OA
ATOM     24  H80 UNK     0      -1.486   3.668  -0.559  0.00  0.00    +0.000 HD
ENDBRANCH   8  23
BRANCH  17  25
ATOM     25  O7  UNK     0      -2.492   0.681   4.611  0.00  0.00    +0.000 OA
ATOM     26  H85 UNK     0      -2.764   0.116   5.374  0.00  0.00    +0.000 HD
ENDBRANCH  17  25
BRANCH   9  27
ATOM     27  O5  UNK     0      -5.634  -2.370   2.922  0.00  0.00    +0.000 OA
ATOM     28  H81 UNK     0      -6.326  -3.014   2.619  0.00  0.00    +0.000 HD
ENDBRANCH   9  27
BRANCH  18  29
ATOM     29  O8  UNK     0       1.236  -0.029  -0.168  0.00  0.00    +0.000 OA
BRANCH  29  30
ATOM     30  C39 UNK     0       2.165   0.504  -1.082  0.00  0.00    +0.000 C 
ATOM     31  O11 UNK     0       2.067   1.713  -1.450  0.00  0.00    +0.000 OA
BRANCH  30  32
ATOM     32  C41 UNK     0       3.319  -0.319  -1.590  0.00  0.00    +0.000 C 
BRANCH  32  33
ATOM     33  O12 UNK     0       2.957  -1.678  -1.704  0.00  0.00    +0.000 OA
ATOM     34  H95 UNK     0       2.215  -1.735  -2.361  0.00  0.00    +0.000 HD
ENDBRANCH  32  33
BRANCH  32  35
ATOM     35  C44 UNK     0       4.524  -0.197  -0.633  0.00  0.00    +0.000 C 
BRANCH  35  36
ATOM     36  C48 UNK     0       4.780   1.224  -0.134  0.00  0.00    +0.000 A 
ATOM     37  C50 UNK     0       5.304   2.217  -0.983  0.00  0.00    +0.000 A 
ATOM     38  C53 UNK     0       5.543   3.514  -0.501  0.00  0.00    +0.000 A 
ATOM     39  C54 UNK     0       5.227   3.829   0.814  0.00  0.00    +0.000 A 
ATOM     40  C52 UNK     0       4.680   2.859   1.661  0.00  0.00    +0.000 A 
ATOM     41  C49 UNK     0       4.448   1.558   1.186  0.00  0.00    +0.000 A 
ENDBRANCH  35  36
BRANCH  35  42
ATOM     42  N15 UNK     0       5.723  -0.675  -1.328  0.00  0.00    +0.000 N 
ATOM     43  C51 UNK     0       6.552  -1.740  -0.832  0.00  0.00    +0.000 C 
ATOM     44  O14 UNK     0       6.265  -2.303   0.258  0.00  0.00    +0.000 OA
ATOM     45  H97 UNK     0       5.987  -0.245  -2.248  0.00  0.00    +0.000 HD
BRANCH  43  46
ATOM     46  O13 UNK     0       7.624  -2.174  -1.628  0.00  0.00    +0.000 OA
BRANCH  46  47
ATOM     47  C55 UNK     0       8.428  -3.338  -1.415  0.00  0.00    +0.000 C 
ATOM     48  C56 UNK     0       9.462  -3.395  -2.538  0.00  0.00    +0.000 C 
ATOM     49  C57 UNK     0       9.169  -3.258  -0.066  0.00  0.00    +0.000 C 
ATOM     50  C58 UNK     0       7.549  -4.594  -1.462  0.00  0.00    +0.000 C 
ENDBRANCH  46  47
ENDBRANCH  43  46
ENDBRANCH  35  42
ENDBRANCH  32  35
ENDBRANCH  30  32
ENDBRANCH  29  30
ENDBRANCH  18  29
BRANCH   7  51
ATOM     51  O3  UNK     0      -4.036   1.710  -0.790  0.00  0.00    +0.000 OA
BRANCH  51  52
ATOM     52  C37 UNK     0      -4.139   2.713  -1.755  0.00  0.00    +0.000 C 
ATOM     53  O10 UNK     0      -3.415   3.746  -1.798  0.00  0.00    +0.000 OA
BRANCH  52  54
ATOM     54  C40 UNK     0      -5.271   2.581  -2.658  0.00  0.00    +0.000 A 
ATOM     55  C42 UNK     0      -5.080   2.432  -4.038  0.00  0.00    +0.000 A 
ATOM     56  C45 UNK     0      -6.170   2.111  -4.854  0.00  0.00    +0.000 A 
ATOM     57  C47 UNK     0      -7.449   1.961  -4.299  0.00  0.00    +0.000 A 
ATOM     58  C46 UNK     0      -7.616   2.037  -2.911  0.00  0.00    +0.000 A 
ATOM     59  C43 UNK     0      -6.527   2.350  -2.091  0.00  0.00    +0.000 A 
ENDBRANCH  52  54
ENDBRANCH  51  52
ENDBRANCH   7  51
BRANCH   4  60
ATOM     60  O2  UNK     0      -2.586  -2.228  -0.537  0.00  0.00    +0.000 OA
BRANCH  60  61
ATOM     61  C36 UNK     0      -1.410  -2.254  -1.306  0.00  0.00    +0.000 C 
ATOM     62  C38 UNK     0      -0.277  -3.104  -0.854  0.00  0.00    +0.000 C 
ATOM     63  O9  UNK     0      -1.281  -1.503  -2.330  0.00  0.00    +0.000 OA
ENDBRANCH  60  61
ENDBRANCH   4  60
TORSDOF 17
