REMARK  Name = C:\Users\Maximilian\Desktop\Conformers\converted_pdb\conformers_pdb\Docetaxel_conf_30.pdb
REMARK  25 active torsions:
REMARK  status: ('A' for Active; 'I' for Inactive)
REMARK    1  A    between atoms: C17_4  and  O2_58
REMARK    2  A    between atoms: C18_5  and  C29_16
REMARK    3  A    between atoms: C20_7  and  O3_47
REMARK    4  A    between atoms: C21_8  and  O4_45
REMARK    5  A    between atoms: C22_9  and  O5_62
REMARK    6  A    between atoms: C24_11  and  C33_20
REMARK    7  A    between atoms: C24_11  and  C34_21
REMARK    8  A    between atoms: C30_17  and  O7_56
REMARK    9  A    between atoms: C31_18  and  O8_23
REMARK   10  A    between atoms: C32_19  and  C35_22
REMARK   11  A    between atoms: O8_23  and  C39_24
REMARK   12  A    between atoms: C39_24  and  C41_26
REMARK   13  A    between atoms: C41_26  and  O12_27
REMARK   14  A    between atoms: C41_26  and  C44_29
REMARK   15  A    between atoms: C44_29  and  C48_30
REMARK   16  A    between atoms: C44_29  and  N15_36
REMARK   17  A    between atoms: C51_37  and  O13_40
REMARK   18  A    between atoms: O13_40  and  C55_41
REMARK   19  A    between atoms: C55_41  and  C56_42
REMARK   20  A    between atoms: C55_41  and  C57_43
REMARK   21  A    between atoms: C55_41  and  C58_44
REMARK   22  A    between atoms: O3_47  and  C37_48
REMARK   23  A    between atoms: C37_48  and  C40_50
REMARK   24  A    between atoms: O2_58  and  C36_59
REMARK   25  A    between atoms: C36_59  and  C38_60
REMARK                            x       y       z     vdW  Elec       q    Type
REMARK                         _______ _______ _______ _____ _____    ______ ____
ROOT
ATOM      1  O1  UNK     0      -4.475  -0.505   3.020  0.00  0.00    +0.000 OA
ATOM      2  O6  UNK     0      -2.666   4.663   0.714  0.00  0.00    +0.000 OA
ATOM      3  C16 UNK     0      -2.517   1.022   0.749  0.00  0.00    +0.000 C 
ATOM      4  C17 UNK     0      -2.957  -0.262   1.554  0.00  0.00    +0.000 C 
ATOM      5  C18 UNK     0      -2.783   2.401   1.498  0.00  0.00    +0.000 C 
ATOM      6  C19 UNK     0      -3.104  -0.162   3.078  0.00  0.00    +0.000 C 
ATOM      7  C20 UNK     0      -2.908   0.971  -0.798  0.00  0.00    +0.000 C 
ATOM      8  C21 UNK     0      -1.727   1.070  -1.873  0.00  0.00    +0.000 C 
ATOM      9  C22 UNK     0      -2.200   2.255   2.938  0.00  0.00    +0.000 C 
ATOM     10  C23 UNK     0      -2.928   1.200   3.784  0.00  0.00    +0.000 C 
ATOM     11  C24 UNK     0      -0.986   2.467  -1.902  0.00  0.00    +0.000 C 
ATOM     12  C25 UNK     0      -4.441  -0.592   1.612  0.00  0.00    +0.000 C 
ATOM     13  C26 UNK     0      -2.059   3.604   0.834  0.00  0.00    +0.000 C 
ATOM     14  C27 UNK     0      -0.688  -0.094  -1.639  0.00  0.00    +0.000 C 
ATOM     15  C28 UNK     0      -0.220   2.572  -0.565  0.00  0.00    +0.000 C 
ATOM     16  C29 UNK     0      -4.310   2.733   1.568  0.00  0.00    +0.000 C 
ATOM     17  C30 UNK     0      -0.579   3.625   0.483  0.00  0.00    +0.000 C 
ATOM     18  C31 UNK     0       0.714   0.307  -1.085  0.00  0.00    +0.000 C 
ATOM     19  C32 UNK     0       0.676   1.583  -0.256  0.00  0.00    +0.000 C 
ATOM     20  C33 UNK     0       0.045   2.540  -3.083  0.00  0.00    +0.000 C 
ATOM     21  C34 UNK     0      -1.967   3.654  -2.182  0.00  0.00    +0.000 C 
ATOM     22  C35 UNK     0       1.621   1.704   0.924  0.00  0.00    +0.000 C 
ENDROOT
BRANCH   8  23
ATOM     23  O4  UNK     0      -2.282   0.838  -3.153  0.00  0.00    +0.000 OA
ATOM     24  H80 UNK     0      -3.054   1.447  -3.284  0.00  0.00    +0.000 HD
ENDBRANCH   8  23
BRANCH  17  25
ATOM     25  O7  UNK     0      -0.199   4.896   0.019  0.00  0.00    +0.000 OA
ATOM     26  H85 UNK     0       0.794   4.921   0.029  0.00  0.00    +0.000 HD
ENDBRANCH  17  25
BRANCH   9  27
ATOM     27  O5  UNK     0      -2.156   3.488   3.620  0.00  0.00    +0.000 OA
ATOM     28  H81 UNK     0      -3.086   3.753   3.842  0.00  0.00    +0.000 HD
ENDBRANCH   9  27
BRANCH  18  29
ATOM     29  O8  UNK     0       1.247  -0.768  -0.308  0.00  0.00    +0.000 OA
BRANCH  29  30
ATOM     30  C39 UNK     0       1.690  -1.977  -0.855  0.00  0.00    +0.000 C 
ATOM     31  O11 UNK     0       1.433  -2.275  -2.052  0.00  0.00    +0.000 OA
BRANCH  30  32
ATOM     32  C41 UNK     0       2.536  -2.898  -0.027  0.00  0.00    +0.000 C 
BRANCH  32  33
ATOM     33  O12 UNK     0       2.120  -2.819   1.313  0.00  0.00    +0.000 OA
ATOM     34  H95 UNK     0       2.246  -3.717   1.717  0.00  0.00    +0.000 HD
ENDBRANCH  32  33
BRANCH  32  35
ATOM     35  C44 UNK     0       4.028  -2.512  -0.173  0.00  0.00    +0.000 C 
BRANCH  35  36
ATOM     36  C48 UNK     0       4.939  -3.557   0.445  0.00  0.00    +0.000 A 
ATOM     37  C50 UNK     0       5.148  -3.621   1.837  0.00  0.00    +0.000 A 
ATOM     38  C53 UNK     0       5.984  -4.601   2.382  0.00  0.00    +0.000 A 
ATOM     39  C54 UNK     0       6.613  -5.531   1.551  0.00  0.00    +0.000 A 
ATOM     40  C52 UNK     0       6.408  -5.481   0.171  0.00  0.00    +0.000 A 
ATOM     41  C49 UNK     0       5.573  -4.504  -0.381  0.00  0.00    +0.000 A 
ENDBRANCH  35  36
BRANCH  35  42
ATOM     42  N15 UNK     0       4.286  -1.188   0.410  0.00  0.00    +0.000 N 
ATOM     43  C51 UNK     0       4.922  -0.125  -0.310  0.00  0.00    +0.000 C 
ATOM     44  O14 UNK     0       5.336  -0.312  -1.486  0.00  0.00    +0.000 OA
ATOM     45  H97 UNK     0       3.983  -0.989   1.390  0.00  0.00    +0.000 HD
BRANCH  43  46
ATOM     46  O13 UNK     0       5.056   1.125   0.312  0.00  0.00    +0.000 OA
BRANCH  46  47
ATOM     47  C55 UNK     0       5.524   2.336  -0.300  0.00  0.00    +0.000 C 
ATOM     48  C56 UNK     0       6.990   2.187  -0.748  0.00  0.00    +0.000 C 
ATOM     49  C57 UNK     0       4.630   2.720  -1.494  0.00  0.00    +0.000 C 
ATOM     50  C58 UNK     0       5.444   3.444   0.762  0.00  0.00    +0.000 C 
ENDBRANCH  46  47
ENDBRANCH  43  46
ENDBRANCH  35  42
ENDBRANCH  32  35
ENDBRANCH  30  32
ENDBRANCH  29  30
ENDBRANCH  18  29
BRANCH   7  51
ATOM     51  O3  UNK     0      -3.624  -0.242  -1.070  0.00  0.00    +0.000 OA
BRANCH  51  52
ATOM     52  C37 UNK     0      -4.851  -0.319  -1.746  0.00  0.00    +0.000 C 
ATOM     53  O10 UNK     0      -5.402   0.725  -2.193  0.00  0.00    +0.000 OA
BRANCH  52  54
ATOM     54  C40 UNK     0      -5.517  -1.632  -1.896  0.00  0.00    +0.000 A 
ATOM     55  C42 UNK     0      -6.815  -1.725  -2.438  0.00  0.00    +0.000 A 
ATOM     56  C45 UNK     0      -7.446  -2.968  -2.555  0.00  0.00    +0.000 A 
ATOM     57  C47 UNK     0      -6.789  -4.129  -2.139  0.00  0.00    +0.000 A 
ATOM     58  C46 UNK     0      -5.500  -4.050  -1.605  0.00  0.00    +0.000 A 
ATOM     59  C43 UNK     0      -4.865  -2.809  -1.484  0.00  0.00    +0.000 A 
ENDBRANCH  52  54
ENDBRANCH  51  52
ENDBRANCH   7  51
BRANCH   4  60
ATOM     60  O2  UNK     0      -2.155  -1.389   1.148  0.00  0.00    +0.000 OA
BRANCH  60  61
ATOM     61  C36 UNK     0      -2.247  -2.725   1.579  0.00  0.00    +0.000 C 
ATOM     62  C38 UNK     0      -1.358  -3.746   0.961  0.00  0.00    +0.000 C 
ATOM     63  O9  UNK     0      -3.082  -3.087   2.452  0.00  0.00    +0.000 OA
ENDBRANCH  60  61
ENDBRANCH   4  60
TORSDOF 17
