REMARK  Name = C:\Users\Maximilian\Desktop\Conformers\converted_pdb\conformers_pdb\Docetaxel_conf_75.pdb
REMARK  25 active torsions:
REMARK  status: ('A' for Active; 'I' for Inactive)
REMARK    1  A    between atoms: C17_4  and  O2_58
REMARK    2  A    between atoms: C18_5  and  C29_16
REMARK    3  A    between atoms: C20_7  and  O3_47
REMARK    4  A    between atoms: C21_8  and  O4_45
REMARK    5  A    between atoms: C22_9  and  O5_62
REMARK    6  A    between atoms: C24_11  and  C33_20
REMARK    7  A    between atoms: C24_11  and  C34_21
REMARK    8  A    between atoms: C30_17  and  O7_56
REMARK    9  A    between atoms: C31_18  and  O8_23
REMARK   10  A    between atoms: C32_19  and  C35_22
REMARK   11  A    between atoms: O8_23  and  C39_24
REMARK   12  A    between atoms: C39_24  and  C41_26
REMARK   13  A    between atoms: C41_26  and  O12_27
REMARK   14  A    between atoms: C41_26  and  C44_29
REMARK   15  A    between atoms: C44_29  and  C48_30
REMARK   16  A    between atoms: C44_29  and  N15_36
REMARK   17  A    between atoms: C51_37  and  O13_40
REMARK   18  A    between atoms: O13_40  and  C55_41
REMARK   19  A    between atoms: C55_41  and  C56_42
REMARK   20  A    between atoms: C55_41  and  C57_43
REMARK   21  A    between atoms: C55_41  and  C58_44
REMARK   22  A    between atoms: O3_47  and  C37_48
REMARK   23  A    between atoms: C37_48  and  C40_50
REMARK   24  A    between atoms: O2_58  and  C36_59
REMARK   25  A    between atoms: C36_59  and  C38_60
REMARK                            x       y       z     vdW  Elec       q    Type
REMARK                         _______ _______ _______ _____ _____    ______ ____
ROOT
ATOM      1  O1  UNK     0      -5.506  -1.639  -3.147  0.00  0.00    +0.000 OA
ATOM      2  O6  UNK     0      -0.440  -2.265  -0.310  0.00  0.00    +0.000 OA
ATOM      3  C16 UNK     0      -3.129  -0.709  -0.918  0.00  0.00    +0.000 C 
ATOM      4  C17 UNK     0      -4.310  -0.371  -1.924  0.00  0.00    +0.000 C 
ATOM      5  C18 UNK     0      -2.720  -2.273  -0.953  0.00  0.00    +0.000 C 
ATOM      6  C19 UNK     0      -4.211  -1.070  -3.287  0.00  0.00    +0.000 C 
ATOM      7  C20 UNK     0      -3.150   0.348   0.308  0.00  0.00    +0.000 C 
ATOM      8  C21 UNK     0      -2.295   0.261   1.651  0.00  0.00    +0.000 C 
ATOM      9  C22 UNK     0      -2.151  -2.505  -2.412  0.00  0.00    +0.000 C 
ATOM     10  C23 UNK     0      -3.176  -2.201  -3.536  0.00  0.00    +0.000 C 
ATOM     11  C24 UNK     0      -2.598  -0.974   2.608  0.00  0.00    +0.000 C 
ATOM     12  C25 UNK     0      -5.642  -1.102  -1.842  0.00  0.00    +0.000 C 
ATOM     13  C26 UNK     0      -1.575  -2.584   0.021  0.00  0.00    +0.000 C 
ATOM     14  C27 UNK     0      -0.776   0.394   1.286  0.00  0.00    +0.000 C 
ATOM     15  C28 UNK     0      -1.522  -2.061   2.406  0.00  0.00    +0.000 C 
ATOM     16  C29 UNK     0      -3.836  -3.362  -0.806  0.00  0.00    +0.000 C 
ATOM     17  C30 UNK     0      -1.707  -3.186   1.414  0.00  0.00    +0.000 C 
ATOM     18  C31 UNK     0       0.213  -0.286   2.262  0.00  0.00    +0.000 C 
ATOM     19  C32 UNK     0      -0.234  -1.688   2.615  0.00  0.00    +0.000 C 
ATOM     20  C33 UNK     0      -2.521  -0.610   4.132  0.00  0.00    +0.000 C 
ATOM     21  C34 UNK     0      -4.062  -1.447   2.452  0.00  0.00    +0.000 C 
ATOM     22  C35 UNK     0       0.759  -2.681   3.157  0.00  0.00    +0.000 C 
ENDROOT
BRANCH   8  23
ATOM     23  O4  UNK     0      -2.667   1.431   2.361  0.00  0.00    +0.000 OA
ATOM     24  H80 UNK     0      -1.960   1.651   3.033  0.00  0.00    +0.000 HD
ENDBRANCH   8  23
BRANCH  17  25
ATOM     25  O7  UNK     0      -2.899  -3.874   1.675  0.00  0.00    +0.000 OA
ATOM     26  H85 UNK     0      -2.745  -4.843   1.475  0.00  0.00    +0.000 HD
ENDBRANCH  17  25
BRANCH   9  27
ATOM     27  O5  UNK     0      -1.667  -3.822  -2.533  0.00  0.00    +0.000 OA
ATOM     28  H81 UNK     0      -1.183  -3.878  -3.398  0.00  0.00    +0.000 HD
ENDBRANCH   9  27
BRANCH  18  29
ATOM     29  O8  UNK     0       1.481  -0.408   1.610  0.00  0.00    +0.000 OA
BRANCH  29  30
ATOM     30  C39 UNK     0       2.118   0.635   0.914  0.00  0.00    +0.000 C 
ATOM     31  O11 UNK     0       2.085   1.812   1.359  0.00  0.00    +0.000 OA
BRANCH  30  32
ATOM     32  C41 UNK     0       2.776   0.335  -0.415  0.00  0.00    +0.000 C 
BRANCH  32  33
ATOM     33  O12 UNK     0       2.391  -0.928  -0.901  0.00  0.00    +0.000 OA
ATOM     34  H95 UNK     0       2.640  -1.612  -0.224  0.00  0.00    +0.000 HD
ENDBRANCH  32  33
BRANCH  32  35
ATOM     35  C44 UNK     0       4.313   0.499  -0.378  0.00  0.00    +0.000 C 
BRANCH  35  36
ATOM     36  C48 UNK     0       4.912   0.202  -1.738  0.00  0.00    +0.000 A 
ATOM     37  C50 UNK     0       5.257   1.256  -2.599  0.00  0.00    +0.000 A 
ATOM     38  C53 UNK     0       5.807   0.982  -3.854  0.00  0.00    +0.000 A 
ATOM     39  C54 UNK     0       5.993  -0.342  -4.267  0.00  0.00    +0.000 A 
ATOM     40  C52 UNK     0       5.616  -1.392  -3.428  0.00  0.00    +0.000 A 
ATOM     41  C49 UNK     0       5.079  -1.124  -2.172  0.00  0.00    +0.000 A 
ENDBRANCH  35  36
BRANCH  35  42
ATOM     42  N15 UNK     0       4.939  -0.329   0.657  0.00  0.00    +0.000 N 
ATOM     43  C51 UNK     0       6.288  -0.072   1.064  0.00  0.00    +0.000 C 
ATOM     44  O14 UNK     0       7.141   0.300   0.220  0.00  0.00    +0.000 OA
ATOM     45  H97 UNK     0       4.365  -0.953   1.260  0.00  0.00    +0.000 HD
BRANCH  43  46
ATOM     46  O13 UNK     0       6.655  -0.284   2.400  0.00  0.00    +0.000 OA
BRANCH  46  47
ATOM     47  C55 UNK     0       7.713   0.425   3.074  0.00  0.00    +0.000 C 
ATOM     48  C56 UNK     0       7.471   1.948   2.995  0.00  0.00    +0.000 C 
ATOM     49  C57 UNK     0       7.697  -0.004   4.544  0.00  0.00    +0.000 C 
ATOM     50  C58 UNK     0       9.089   0.065   2.477  0.00  0.00    +0.000 C 
ENDBRANCH  46  47
ENDBRANCH  43  46
ENDBRANCH  35  42
ENDBRANCH  32  35
ENDBRANCH  30  32
ENDBRANCH  29  30
ENDBRANCH  18  29
BRANCH   7  51
ATOM     51  O3  UNK     0      -2.729   1.594  -0.288  0.00  0.00    +0.000 OA
BRANCH  51  52
ATOM     52  C37 UNK     0      -3.367   2.840  -0.190  0.00  0.00    +0.000 C 
ATOM     53  O10 UNK     0      -4.045   3.144   0.821  0.00  0.00    +0.000 OA
BRANCH  52  54
ATOM     54  C40 UNK     0      -3.263   3.757  -1.356  0.00  0.00    +0.000 A 
ATOM     55  C42 UNK     0      -3.950   4.986  -1.367  0.00  0.00    +0.000 A 
ATOM     56  C45 UNK     0      -4.068   5.708  -2.557  0.00  0.00    +0.000 A 
ATOM     57  C47 UNK     0      -3.495   5.224  -3.734  0.00  0.00    +0.000 A 
ATOM     58  C46 UNK     0      -2.767   4.033  -3.719  0.00  0.00    +0.000 A 
ATOM     59  C43 UNK     0      -2.625   3.321  -2.532  0.00  0.00    +0.000 A 
ENDBRANCH  52  54
ENDBRANCH  51  52
ENDBRANCH   7  51
BRANCH   4  60
ATOM     60  O2  UNK     0      -4.542   1.050  -2.054  0.00  0.00    +0.000 OA
BRANCH  60  61
ATOM     61  C36 UNK     0      -5.619   1.654  -2.742  0.00  0.00    +0.000 C 
ATOM     62  C38 UNK     0      -6.538   2.589  -2.010  0.00  0.00    +0.000 C 
ATOM     63  O9  UNK     0      -5.924   1.306  -3.916  0.00  0.00    +0.000 OA
ENDBRANCH  60  61
ENDBRANCH   4  60
TORSDOF 17
