REMARK  Name = C:\Users\Maximilian\Desktop\Conformers\converted_pdb\conformers_pdb\Docetaxel_conf_5.pdb
REMARK  25 active torsions:
REMARK  status: ('A' for Active; 'I' for Inactive)
REMARK    1  A    between atoms: C17_4  and  O2_58
REMARK    2  A    between atoms: C18_5  and  C29_16
REMARK    3  A    between atoms: C20_7  and  O3_47
REMARK    4  A    between atoms: C21_8  and  O4_45
REMARK    5  A    between atoms: C22_9  and  O5_62
REMARK    6  A    between atoms: C24_11  and  C33_20
REMARK    7  A    between atoms: C24_11  and  C34_21
REMARK    8  A    between atoms: C30_17  and  O7_56
REMARK    9  A    between atoms: C31_18  and  O8_23
REMARK   10  A    between atoms: C32_19  and  C35_22
REMARK   11  A    between atoms: O8_23  and  C39_24
REMARK   12  A    between atoms: C39_24  and  C41_26
REMARK   13  A    between atoms: C41_26  and  O12_27
REMARK   14  A    between atoms: C41_26  and  C44_29
REMARK   15  A    between atoms: C44_29  and  C48_30
REMARK   16  A    between atoms: C44_29  and  N15_36
REMARK   17  A    between atoms: C51_37  and  O13_40
REMARK   18  A    between atoms: O13_40  and  C55_41
REMARK   19  A    between atoms: C55_41  and  C56_42
REMARK   20  A    between atoms: C55_41  and  C57_43
REMARK   21  A    between atoms: C55_41  and  C58_44
REMARK   22  A    between atoms: O3_47  and  C37_48
REMARK   23  A    between atoms: C37_48  and  C40_50
REMARK   24  A    between atoms: O2_58  and  C36_59
REMARK   25  A    between atoms: C36_59  and  C38_60
REMARK                            x       y       z     vdW  Elec       q    Type
REMARK                         _______ _______ _______ _____ _____    ______ ____
ROOT
ATOM      1  O1  UNK     0      -6.898   1.307   1.099  0.00  0.00    +0.000 OA
ATOM      2  O6  UNK     0      -1.467   2.360   1.668  0.00  0.00    +0.000 OA
ATOM      3  C16 UNK     0      -3.775   0.861   0.348  0.00  0.00    +0.000 C 
ATOM      4  C17 UNK     0      -5.172   0.140   0.614  0.00  0.00    +0.000 C 
ATOM      5  C18 UNK     0      -3.715   2.362   0.931  0.00  0.00    +0.000 C 
ATOM      6  C19 UNK     0      -5.941   0.604   1.844  0.00  0.00    +0.000 C 
ATOM      7  C20 UNK     0      -3.253   0.512  -1.146  0.00  0.00    +0.000 C 
ATOM      8  C21 UNK     0      -1.737   0.760  -1.691  0.00  0.00    +0.000 C 
ATOM      9  C22 UNK     0      -4.092   2.362   2.470  0.00  0.00    +0.000 C 
ATOM     10  C23 UNK     0      -5.201   1.389   2.919  0.00  0.00    +0.000 C 
ATOM     11  C24 UNK     0      -1.366   2.225  -2.201  0.00  0.00    +0.000 C 
ATOM     12  C25 UNK     0      -6.392   0.750  -0.101  0.00  0.00    +0.000 C 
ATOM     13  C26 UNK     0      -2.253   2.871   0.881  0.00  0.00    +0.000 C 
ATOM     14  C27 UNK     0      -0.710   0.221  -0.622  0.00  0.00    +0.000 C 
ATOM     15  C28 UNK     0      -0.742   3.008  -1.037  0.00  0.00    +0.000 C 
ATOM     16  C29 UNK     0      -4.709   3.361   0.256  0.00  0.00    +0.000 C 
ATOM     17  C30 UNK     0      -1.611   3.844  -0.103  0.00  0.00    +0.000 C 
ATOM     18  C31 UNK     0       0.639   0.975  -0.553  0.00  0.00    +0.000 C 
ATOM     19  C32 UNK     0       0.404   2.487  -0.503  0.00  0.00    +0.000 C 
ATOM     20  C33 UNK     0      -0.299   2.208  -3.359  0.00  0.00    +0.000 C 
ATOM     21  C34 UNK     0      -2.556   2.912  -2.913  0.00  0.00    +0.000 C 
ATOM     22  C35 UNK     0       1.320   3.331   0.350  0.00  0.00    +0.000 C 
ENDROOT
BRANCH   8  23
ATOM     23  O4  UNK     0      -1.618  -0.051  -2.848  0.00  0.00    +0.000 OA
ATOM     24  H80 UNK     0      -0.682  -0.382  -2.966  0.00  0.00    +0.000 HD
ENDBRANCH   8  23
BRANCH  17  25
ATOM     25  O7  UNK     0      -2.516   4.660  -0.791  0.00  0.00    +0.000 OA
ATOM     26  H85 UNK     0      -1.982   5.354  -1.267  0.00  0.00    +0.000 HD
ENDBRANCH  17  25
BRANCH   9  27
ATOM     27  O5  UNK     0      -4.419   3.672   2.915  0.00  0.00    +0.000 OA
ATOM     28  H81 UNK     0      -4.256   3.699   3.898  0.00  0.00    +0.000 HD
ENDBRANCH   9  27
BRANCH  18  29
ATOM     29  O8  UNK     0       1.320   0.572   0.640  0.00  0.00    +0.000 OA
BRANCH  29  30
ATOM     30  C39 UNK     0       1.922  -0.688   0.798  0.00  0.00    +0.000 C 
ATOM     31  O11 UNK     0       1.979  -1.503  -0.168  0.00  0.00    +0.000 OA
BRANCH  30  32
ATOM     32  C41 UNK     0       2.483  -1.080   2.139  0.00  0.00    +0.000 C 
BRANCH  32  33
ATOM     33  O12 UNK     0       1.802  -0.390   3.155  0.00  0.00    +0.000 OA
ATOM     34  H95 UNK     0       0.905  -0.801   3.245  0.00  0.00    +0.000 HD
ENDBRANCH  32  33
BRANCH  32  35
ATOM     35  C44 UNK     0       3.998  -0.810   2.256  0.00  0.00    +0.000 C 
BRANCH  35  36
ATOM     36  C48 UNK     0       4.350   0.651   2.033  0.00  0.00    +0.000 A 
ATOM     37  C50 UNK     0       4.331   1.546   3.117  0.00  0.00    +0.000 A 
ATOM     38  C53 UNK     0       4.680   2.884   2.938  0.00  0.00    +0.000 A 
ATOM     39  C54 UNK     0       5.073   3.347   1.684  0.00  0.00    +0.000 A 
ATOM     40  C52 UNK     0       5.093   2.473   0.589  0.00  0.00    +0.000 A 
ATOM     41  C49 UNK     0       4.720   1.135   0.762  0.00  0.00    +0.000 A 
ENDBRANCH  35  36
BRANCH  35  42
ATOM     42  N15 UNK     0       4.758  -1.679   1.352  0.00  0.00    +0.000 N 
ATOM     43  C51 UNK     0       6.140  -1.973   1.561  0.00  0.00    +0.000 C 
ATOM     44  O14 UNK     0       6.669  -1.764   2.691  0.00  0.00    +0.000 OA
ATOM     45  H97 UNK     0       4.369  -1.918   0.413  0.00  0.00    +0.000 HD
BRANCH  43  46
ATOM     46  O13 UNK     0       6.890  -2.480   0.492  0.00  0.00    +0.000 OA
BRANCH  46  47
ATOM     47  C55 UNK     0       8.268  -2.883   0.535  0.00  0.00    +0.000 C 
ATOM     48  C56 UNK     0       8.643  -3.327  -0.885  0.00  0.00    +0.000 C 
ATOM     49  C57 UNK     0       9.180  -1.706   0.942  0.00  0.00    +0.000 C 
ATOM     50  C58 UNK     0       8.461  -4.067   1.502  0.00  0.00    +0.000 C 
ENDBRANCH  46  47
ENDBRANCH  43  46
ENDBRANCH  35  42
ENDBRANCH  32  35
ENDBRANCH  30  32
ENDBRANCH  29  30
ENDBRANCH  18  29
BRANCH   7  51
ATOM     51  O3  UNK     0      -3.431  -0.908  -1.281  0.00  0.00    +0.000 OA
BRANCH  51  52
ATOM     52  C37 UNK     0      -3.756  -1.581  -2.473  0.00  0.00    +0.000 C 
ATOM     53  O10 UNK     0      -4.362  -0.985  -3.406  0.00  0.00    +0.000 OA
BRANCH  52  54
ATOM     54  C40 UNK     0      -3.278  -2.966  -2.656  0.00  0.00    +0.000 A 
ATOM     55  C42 UNK     0      -2.511  -3.583  -1.648  0.00  0.00    +0.000 A 
ATOM     56  C45 UNK     0      -1.992  -4.865  -1.833  0.00  0.00    +0.000 A 
ATOM     57  C47 UNK     0      -2.239  -5.557  -3.022  0.00  0.00    +0.000 A 
ATOM     58  C46 UNK     0      -2.999  -4.956  -4.035  0.00  0.00    +0.000 A 
ATOM     59  C43 UNK     0      -3.514  -3.666  -3.856  0.00  0.00    +0.000 A 
ENDBRANCH  52  54
ENDBRANCH  51  52
ENDBRANCH   7  51
BRANCH   4  60
ATOM     60  O2  UNK     0      -5.069  -1.297   0.677  0.00  0.00    +0.000 OA
BRANCH  60  61
ATOM     61  C36 UNK     0      -5.737  -2.267  -0.099  0.00  0.00    +0.000 C 
ATOM     62  C38 UNK     0      -5.684  -3.688   0.317  0.00  0.00    +0.000 C 
ATOM     63  O9  UNK     0      -6.333  -1.972  -1.172  0.00  0.00    +0.000 OA
ENDBRANCH  60  61
ENDBRANCH   4  60
TORSDOF 17
