REMARK  Name = C:\Users\Maximilian\Desktop\Conformers\converted_pdb\conformers_pdb\Docetaxel_conf_61.pdb
REMARK  25 active torsions:
REMARK  status: ('A' for Active; 'I' for Inactive)
REMARK    1  A    between atoms: C17_4  and  O2_58
REMARK    2  A    between atoms: C18_5  and  C29_16
REMARK    3  A    between atoms: C20_7  and  O3_47
REMARK    4  A    between atoms: C21_8  and  O4_45
REMARK    5  A    between atoms: C22_9  and  O5_62
REMARK    6  A    between atoms: C24_11  and  C33_20
REMARK    7  A    between atoms: C24_11  and  C34_21
REMARK    8  A    between atoms: C30_17  and  O7_56
REMARK    9  A    between atoms: C31_18  and  O8_23
REMARK   10  A    between atoms: C32_19  and  C35_22
REMARK   11  A    between atoms: O8_23  and  C39_24
REMARK   12  A    between atoms: C39_24  and  C41_26
REMARK   13  A    between atoms: C41_26  and  O12_27
REMARK   14  A    between atoms: C41_26  and  C44_29
REMARK   15  A    between atoms: C44_29  and  C48_30
REMARK   16  A    between atoms: C44_29  and  N15_36
REMARK   17  A    between atoms: C51_37  and  O13_40
REMARK   18  A    between atoms: O13_40  and  C55_41
REMARK   19  A    between atoms: C55_41  and  C56_42
REMARK   20  A    between atoms: C55_41  and  C57_43
REMARK   21  A    between atoms: C55_41  and  C58_44
REMARK   22  A    between atoms: O3_47  and  C37_48
REMARK   23  A    between atoms: C37_48  and  C40_50
REMARK   24  A    between atoms: O2_58  and  C36_59
REMARK   25  A    between atoms: C36_59  and  C38_60
REMARK                            x       y       z     vdW  Elec       q    Type
REMARK                         _______ _______ _______ _____ _____    ______ ____
ROOT
ATOM      1  O1  UNK     0      -6.320  -0.933   1.460  0.00  0.00    +0.000 OA
ATOM      2  O6  UNK     0      -0.838   0.432   2.794  0.00  0.00    +0.000 OA
ATOM      3  C16 UNK     0      -3.120   0.174   0.830  0.00  0.00    +0.000 C 
ATOM      4  C17 UNK     0      -4.326  -0.856   0.725  0.00  0.00    +0.000 C 
ATOM      5  C18 UNK     0      -3.064   1.013   2.186  0.00  0.00    +0.000 C 
ATOM      6  C19 UNK     0      -5.073  -1.321   1.986  0.00  0.00    +0.000 C 
ATOM      7  C20 UNK     0      -2.899   0.925  -0.586  0.00  0.00    +0.000 C 
ATOM      8  C21 UNK     0      -1.464   1.425  -1.124  0.00  0.00    +0.000 C 
ATOM      9  C22 UNK     0      -3.461   0.067   3.391  0.00  0.00    +0.000 C 
ATOM     10  C23 UNK     0      -4.859  -0.548   3.281  0.00  0.00    +0.000 C 
ATOM     11  C24 UNK     0      -0.951   2.802  -0.510  0.00  0.00    +0.000 C 
ATOM     12  C25 UNK     0      -5.699  -0.324   0.347  0.00  0.00    +0.000 C 
ATOM     13  C26 UNK     0      -1.564   1.365   2.453  0.00  0.00    +0.000 C 
ATOM     14  C27 UNK     0      -0.381   0.263  -0.975  0.00  0.00    +0.000 C 
ATOM     15  C28 UNK     0      -0.167   2.510   0.778  0.00  0.00    +0.000 C 
ATOM     16  C29 UNK     0      -4.031   2.252   2.207  0.00  0.00    +0.000 C 
ATOM     17  C30 UNK     0      -0.788   2.652   2.175  0.00  0.00    +0.000 C 
ATOM     18  C31 UNK     0       1.028   0.673  -0.440  0.00  0.00    +0.000 C 
ATOM     19  C32 UNK     0       0.937   1.714   0.661  0.00  0.00    +0.000 C 
ATOM     20  C33 UNK     0       0.038   3.540  -1.481  0.00  0.00    +0.000 C 
ATOM     21  C34 UNK     0      -2.083   3.852  -0.347  0.00  0.00    +0.000 C 
ATOM     22  C35 UNK     0       2.103   1.832   1.620  0.00  0.00    +0.000 C 
ENDROOT
BRANCH   8  23
ATOM     23  O4  UNK     0      -1.641   1.729  -2.500  0.00  0.00    +0.000 OA
ATOM     24  H80 UNK     0      -1.628   0.905  -3.046  0.00  0.00    +0.000 HD
ENDBRANCH   8  23
BRANCH  17  25
ATOM     25  O7  UNK     0      -1.500   3.839   2.380  0.00  0.00    +0.000 OA
ATOM     26  H85 UNK     0      -0.858   4.575   2.206  0.00  0.00    +0.000 HD
ENDBRANCH  17  25
BRANCH   9  27
ATOM     27  O5  UNK     0      -3.319   0.734   4.630  0.00  0.00    +0.000 OA
ATOM     28  H81 UNK     0      -4.205   1.117   4.889  0.00  0.00    +0.000 HD
ENDBRANCH   9  27
BRANCH  18  29
ATOM     29  O8  UNK     0       1.716  -0.467   0.097  0.00  0.00    +0.000 OA
BRANCH  29  30
ATOM     30  C39 UNK     0       1.999  -1.656  -0.582  0.00  0.00    +0.000 C 
ATOM     31  O11 UNK     0       1.541  -1.875  -1.731  0.00  0.00    +0.000 OA
BRANCH  30  32
ATOM     32  C41 UNK     0       2.871  -2.695   0.078  0.00  0.00    +0.000 C 
BRANCH  32  33
ATOM     33  O12 UNK     0       2.429  -3.009   1.375  0.00  0.00    +0.000 OA
ATOM     34  H95 UNK     0       2.253  -2.171   1.873  0.00  0.00    +0.000 HD
ENDBRANCH  32  33
BRANCH  32  35
ATOM     35  C44 UNK     0       4.365  -2.296   0.053  0.00  0.00    +0.000 C 
BRANCH  35  36
ATOM     36  C48 UNK     0       5.244  -3.461   0.467  0.00  0.00    +0.000 A 
ATOM     37  C50 UNK     0       5.704  -4.367  -0.501  0.00  0.00    +0.000 A 
ATOM     38  C53 UNK     0       6.452  -5.491  -0.124  0.00  0.00    +0.000 A 
ATOM     39  C54 UNK     0       6.729  -5.730   1.220  0.00  0.00    +0.000 A 
ATOM     40  C52 UNK     0       6.252  -4.857   2.195  0.00  0.00    +0.000 A 
ATOM     41  C49 UNK     0       5.521  -3.717   1.830  0.00  0.00    +0.000 A 
ENDBRANCH  35  36
BRANCH  35  42
ATOM     42  N15 UNK     0       4.641  -1.110   0.879  0.00  0.00    +0.000 N 
ATOM     43  C51 UNK     0       5.697  -0.190   0.577  0.00  0.00    +0.000 C 
ATOM     44  O14 UNK     0       6.610  -0.519  -0.222  0.00  0.00    +0.000 OA
ATOM     45  H97 UNK     0       4.017  -0.864   1.682  0.00  0.00    +0.000 HD
BRANCH  43  46
ATOM     46  O13 UNK     0       5.693   1.070   1.191  0.00  0.00    +0.000 OA
BRANCH  46  47
ATOM     47  C55 UNK     0       6.529   2.183   0.844  0.00  0.00    +0.000 C 
ATOM     48  C56 UNK     0       6.044   3.390   1.656  0.00  0.00    +0.000 C 
ATOM     49  C57 UNK     0       7.996   1.892   1.214  0.00  0.00    +0.000 C 
ATOM     50  C58 UNK     0       6.398   2.515  -0.654  0.00  0.00    +0.000 C 
ENDBRANCH  46  47
ENDBRANCH  43  46
ENDBRANCH  35  42
ENDBRANCH  32  35
ENDBRANCH  30  32
ENDBRANCH  29  30
ENDBRANCH  18  29
BRANCH   7  51
ATOM     51  O3  UNK     0      -3.429   0.080  -1.622  0.00  0.00    +0.000 OA
BRANCH  51  52
ATOM     52  C37 UNK     0      -4.337   0.495  -2.616  0.00  0.00    +0.000 C 
ATOM     53  O10 UNK     0      -4.992   1.571  -2.475  0.00  0.00    +0.000 OA
BRANCH  52  54
ATOM     54  C40 UNK     0      -4.522  -0.313  -3.832  0.00  0.00    +0.000 A 
ATOM     55  C42 UNK     0      -3.541  -1.240  -4.204  0.00  0.00    +0.000 A 
ATOM     56  C45 UNK     0      -3.688  -2.014  -5.364  0.00  0.00    +0.000 A 
ATOM     57  C47 UNK     0      -4.831  -1.866  -6.153  0.00  0.00    +0.000 A 
ATOM     58  C46 UNK     0      -5.812  -0.942  -5.798  0.00  0.00    +0.000 A 
ATOM     59  C43 UNK     0      -5.654  -0.164  -4.641  0.00  0.00    +0.000 A 
ENDBRANCH  52  54
ENDBRANCH  51  52
ENDBRANCH   7  51
BRANCH   4  60
ATOM     60  O2  UNK     0      -3.935  -1.982  -0.105  0.00  0.00    +0.000 OA
BRANCH  60  61
ATOM     61  C36 UNK     0      -4.697  -3.121  -0.398  0.00  0.00    +0.000 C 
ATOM     62  C38 UNK     0      -5.326  -3.279  -1.743  0.00  0.00    +0.000 C 
ATOM     63  O9  UNK     0      -4.659  -4.109   0.382  0.00  0.00    +0.000 OA
ENDBRANCH  60  61
ENDBRANCH   4  60
TORSDOF 17
