REMARK  Name = C:\Users\Maximilian\Desktop\Conformers\converted_pdb\conformers_pdb\Docetaxel_conf_23.pdb
REMARK  25 active torsions:
REMARK  status: ('A' for Active; 'I' for Inactive)
REMARK    1  A    between atoms: C17_4  and  O2_58
REMARK    2  A    between atoms: C18_5  and  C29_16
REMARK    3  A    between atoms: C20_7  and  O3_47
REMARK    4  A    between atoms: C21_8  and  O4_45
REMARK    5  A    between atoms: C22_9  and  O5_62
REMARK    6  A    between atoms: C24_11  and  C33_20
REMARK    7  A    between atoms: C24_11  and  C34_21
REMARK    8  A    between atoms: C30_17  and  O7_56
REMARK    9  A    between atoms: C31_18  and  O8_23
REMARK   10  A    between atoms: C32_19  and  C35_22
REMARK   11  A    between atoms: O8_23  and  C39_24
REMARK   12  A    between atoms: C39_24  and  C41_26
REMARK   13  A    between atoms: C41_26  and  O12_27
REMARK   14  A    between atoms: C41_26  and  C44_29
REMARK   15  A    between atoms: C44_29  and  C48_30
REMARK   16  A    between atoms: C44_29  and  N15_36
REMARK   17  A    between atoms: C51_37  and  O13_40
REMARK   18  A    between atoms: O13_40  and  C55_41
REMARK   19  A    between atoms: C55_41  and  C56_42
REMARK   20  A    between atoms: C55_41  and  C57_43
REMARK   21  A    between atoms: C55_41  and  C58_44
REMARK   22  A    between atoms: O3_47  and  C37_48
REMARK   23  A    between atoms: C37_48  and  C40_50
REMARK   24  A    between atoms: O2_58  and  C36_59
REMARK   25  A    between atoms: C36_59  and  C38_60
REMARK                            x       y       z     vdW  Elec       q    Type
REMARK                         _______ _______ _______ _____ _____    ______ ____
ROOT
ATOM      1  O1  UNK     0      -5.643  -1.966  -0.145  0.00  0.00    +0.000 OA
ATOM      2  O6  UNK     0      -0.268  -2.867   2.279  0.00  0.00    +0.000 OA
ATOM      3  C16 UNK     0      -2.604  -0.708   0.924  0.00  0.00    +0.000 C 
ATOM      4  C17 UNK     0      -3.708  -1.062  -0.182  0.00  0.00    +0.000 C 
ATOM      5  C18 UNK     0      -2.441  -1.846   2.058  0.00  0.00    +0.000 C 
ATOM      6  C19 UNK     0      -4.336  -2.455  -0.314  0.00  0.00    +0.000 C 
ATOM      7  C20 UNK     0      -2.755   0.844   1.354  0.00  0.00    +0.000 C 
ATOM      8  C21 UNK     0      -1.469   1.799   1.441  0.00  0.00    +0.000 C 
ATOM      9  C22 UNK     0      -2.689  -3.269   1.409  0.00  0.00    +0.000 C 
ATOM     10  C23 UNK     0      -4.062  -3.459   0.796  0.00  0.00    +0.000 C 
ATOM     11  C24 UNK     0      -0.652   1.645   2.768  0.00  0.00    +0.000 C 
ATOM     12  C25 UNK     0      -5.160  -0.675   0.106  0.00  0.00    +0.000 C 
ATOM     13  C26 UNK     0      -0.985  -1.935   2.631  0.00  0.00    +0.000 C 
ATOM     14  C27 UNK     0      -0.542   1.621   0.175  0.00  0.00    +0.000 C 
ATOM     15  C28 UNK     0       0.065   0.294   2.706  0.00  0.00    +0.000 C 
ATOM     16  C29 UNK     0      -3.454  -1.671   3.219  0.00  0.00    +0.000 C 
ATOM     17  C30 UNK     0      -0.302  -0.932   3.539  0.00  0.00    +0.000 C 
ATOM     18  C31 UNK     0       0.806   0.864   0.364  0.00  0.00    +0.000 C 
ATOM     19  C32 UNK     0       0.933   0.100   1.670  0.00  0.00    +0.000 C 
ATOM     20  C33 UNK     0       0.436   2.765   2.889  0.00  0.00    +0.000 C 
ATOM     21  C34 UNK     0      -1.539   1.893   4.026  0.00  0.00    +0.000 C 
ATOM     22  C35 UNK     0       2.121  -0.829   1.807  0.00  0.00    +0.000 C 
ENDROOT
BRANCH   8  23
ATOM     23  O4  UNK     0      -1.931   3.141   1.456  0.00  0.00    +0.000 OA
ATOM     24  H80 UNK     0      -2.173   3.425   0.534  0.00  0.00    +0.000 HD
ENDBRANCH   8  23
BRANCH  17  25
ATOM     25  O7  UNK     0      -1.071  -0.685   4.683  0.00  0.00    +0.000 OA
ATOM     26  H85 UNK     0      -0.447  -0.398   5.402  0.00  0.00    +0.000 HD
ENDBRANCH  17  25
BRANCH   9  27
ATOM     27  O5  UNK     0      -2.500  -4.286   2.366  0.00  0.00    +0.000 OA
ATOM     28  H81 UNK     0      -2.276  -5.116   1.871  0.00  0.00    +0.000 HD
ENDBRANCH   9  27
BRANCH  18  29
ATOM     29  O8  UNK     0       1.012  -0.057  -0.712  0.00  0.00    +0.000 OA
BRANCH  29  30
ATOM     30  C39 UNK     0       1.308   0.332  -2.023  0.00  0.00    +0.000 C 
ATOM     31  O11 UNK     0       1.072   1.506  -2.412  0.00  0.00    +0.000 OA
BRANCH  30  32
ATOM     32  C41 UNK     0       1.974  -0.648  -2.955  0.00  0.00    +0.000 C 
BRANCH  32  33
ATOM     33  O12 UNK     0       1.602  -1.964  -2.628  0.00  0.00    +0.000 OA
ATOM     34  H95 UNK     0       0.745  -2.144  -3.096  0.00  0.00    +0.000 HD
ENDBRANCH  32  33
BRANCH  32  35
ATOM     35  C44 UNK     0       3.510  -0.486  -2.881  0.00  0.00    +0.000 C 
BRANCH  35  36
ATOM     36  C48 UNK     0       4.205  -1.317  -3.945  0.00  0.00    +0.000 A 
ATOM     37  C50 UNK     0       4.721  -0.699  -5.100  0.00  0.00    +0.000 A 
ATOM     38  C53 UNK     0       5.358  -1.462  -6.085  0.00  0.00    +0.000 A 
ATOM     39  C54 UNK     0       5.477  -2.846  -5.935  0.00  0.00    +0.000 A 
ATOM     40  C52 UNK     0       4.962  -3.472  -4.798  0.00  0.00    +0.000 A 
ATOM     41  C49 UNK     0       4.326  -2.715  -3.810  0.00  0.00    +0.000 A 
ENDBRANCH  35  36
BRANCH  35  42
ATOM     42  N15 UNK     0       4.013  -0.842  -1.547  0.00  0.00    +0.000 N 
ATOM     43  C51 UNK     0       5.095  -0.150  -0.916  0.00  0.00    +0.000 C 
ATOM     44  O14 UNK     0       5.666   0.806  -1.505  0.00  0.00    +0.000 OA
ATOM     45  H97 UNK     0       3.629  -1.683  -1.059  0.00  0.00    +0.000 HD
BRANCH  43  46
ATOM     46  O13 UNK     0       5.494  -0.551   0.368  0.00  0.00    +0.000 OA
BRANCH  46  47
ATOM     47  C55 UNK     0       6.432   0.129   1.215  0.00  0.00    +0.000 C 
ATOM     48  C56 UNK     0       7.833   0.140   0.572  0.00  0.00    +0.000 C 
ATOM     49  C57 UNK     0       5.954   1.565   1.510  0.00  0.00    +0.000 C 
ATOM     50  C58 UNK     0       6.499  -0.651   2.538  0.00  0.00    +0.000 C 
ENDBRANCH  46  47
ENDBRANCH  43  46
ENDBRANCH  35  42
ENDBRANCH  32  35
ENDBRANCH  30  32
ENDBRANCH  29  30
ENDBRANCH  18  29
BRANCH   7  51
ATOM     51  O3  UNK     0      -3.643   1.504   0.437  0.00  0.00    +0.000 OA
BRANCH  51  52
ATOM     52  C37 UNK     0      -4.650   2.414   0.802  0.00  0.00    +0.000 C 
ATOM     53  O10 UNK     0      -4.878   2.658   2.019  0.00  0.00    +0.000 OA
BRANCH  52  54
ATOM     54  C40 UNK     0      -5.435   3.088  -0.252  0.00  0.00    +0.000 A 
ATOM     55  C42 UNK     0      -5.159   2.842  -1.609  0.00  0.00    +0.000 A 
ATOM     56  C45 UNK     0      -5.898   3.478  -2.610  0.00  0.00    +0.000 A 
ATOM     57  C47 UNK     0      -6.918   4.369  -2.268  0.00  0.00    +0.000 A 
ATOM     58  C46 UNK     0      -7.198   4.621  -0.923  0.00  0.00    +0.000 A 
ATOM     59  C43 UNK     0      -6.466   3.983   0.082  0.00  0.00    +0.000 A 
ENDBRANCH  52  54
ENDBRANCH  51  52
ENDBRANCH   7  51
BRANCH   4  60
ATOM     60  O2  UNK     0      -3.348  -0.532  -1.462  0.00  0.00    +0.000 OA
BRANCH  60  61
ATOM     61  C36 UNK     0      -2.303  -1.020  -2.251  0.00  0.00    +0.000 C 
ATOM     62  C38 UNK     0      -1.986  -0.339  -3.537  0.00  0.00    +0.000 C 
ATOM     63  O9  UNK     0      -1.660  -2.049  -1.909  0.00  0.00    +0.000 OA
ENDBRANCH  60  61
ENDBRANCH   4  60
TORSDOF 17
