REMARK  Name = C:\Users\Maximilian\Desktop\Conformers\converted_pdb\conformers_pdb\Docetaxel_conf_36.pdb
REMARK  25 active torsions:
REMARK  status: ('A' for Active; 'I' for Inactive)
REMARK    1  A    between atoms: C17_4  and  O2_58
REMARK    2  A    between atoms: C18_5  and  C29_16
REMARK    3  A    between atoms: C20_7  and  O3_47
REMARK    4  A    between atoms: C21_8  and  O4_45
REMARK    5  A    between atoms: C22_9  and  O5_62
REMARK    6  A    between atoms: C24_11  and  C33_20
REMARK    7  A    between atoms: C24_11  and  C34_21
REMARK    8  A    between atoms: C30_17  and  O7_56
REMARK    9  A    between atoms: C31_18  and  O8_23
REMARK   10  A    between atoms: C32_19  and  C35_22
REMARK   11  A    between atoms: O8_23  and  C39_24
REMARK   12  A    between atoms: C39_24  and  C41_26
REMARK   13  A    between atoms: C41_26  and  O12_27
REMARK   14  A    between atoms: C41_26  and  C44_29
REMARK   15  A    between atoms: C44_29  and  C48_30
REMARK   16  A    between atoms: C44_29  and  N15_36
REMARK   17  A    between atoms: C51_37  and  O13_40
REMARK   18  A    between atoms: O13_40  and  C55_41
REMARK   19  A    between atoms: C55_41  and  C56_42
REMARK   20  A    between atoms: C55_41  and  C57_43
REMARK   21  A    between atoms: C55_41  and  C58_44
REMARK   22  A    between atoms: O3_47  and  C37_48
REMARK   23  A    between atoms: C37_48  and  C40_50
REMARK   24  A    between atoms: O2_58  and  C36_59
REMARK   25  A    between atoms: C36_59  and  C38_60
REMARK                            x       y       z     vdW  Elec       q    Type
REMARK                         _______ _______ _______ _____ _____    ______ ____
ROOT
ATOM      1  O1  UNK     0      -5.346   2.378   0.884  0.00  0.00    +0.000 OA
ATOM      2  O6  UNK     0      -1.394   2.114  -3.665  0.00  0.00    +0.000 OA
ATOM      3  C16 UNK     0      -2.954   0.534  -0.869  0.00  0.00    +0.000 C 
ATOM      4  C17 UNK     0      -3.506   1.382   0.391  0.00  0.00    +0.000 C 
ATOM      5  C18 UNK     0      -3.199   1.219  -2.328  0.00  0.00    +0.000 C 
ATOM      6  C19 UNK     0      -4.190   2.739   0.177  0.00  0.00    +0.000 C 
ATOM      7  C20 UNK     0      -3.232  -1.063  -0.759  0.00  0.00    +0.000 C 
ATOM      8  C21 UNK     0      -2.003  -2.100  -0.787  0.00  0.00    +0.000 C 
ATOM      9  C22 UNK     0      -3.421   2.774  -2.163  0.00  0.00    +0.000 C 
ATOM     10  C23 UNK     0      -4.568   3.107  -1.236  0.00  0.00    +0.000 C 
ATOM     11  C24 UNK     0      -1.470  -2.388  -2.240  0.00  0.00    +0.000 C 
ATOM     12  C25 UNK     0      -4.870   1.070   1.031  0.00  0.00    +0.000 C 
ATOM     13  C26 UNK     0      -1.960   1.091  -3.287  0.00  0.00    +0.000 C 
ATOM     14  C27 UNK     0      -0.823  -1.628   0.143  0.00  0.00    +0.000 C 
ATOM     15  C28 UNK     0      -0.816  -1.074  -2.718  0.00  0.00    +0.000 C 
ATOM     16  C29 UNK     0      -4.468   0.654  -3.035  0.00  0.00    +0.000 C 
ATOM     17  C30 UNK     0      -1.368  -0.194  -3.843  0.00  0.00    +0.000 C 
ATOM     18  C31 UNK     0       0.464  -1.115  -0.553  0.00  0.00    +0.000 C 
ATOM     19  C32 UNK     0       0.205  -0.568  -1.947  0.00  0.00    +0.000 C 
ATOM     20  C33 UNK     0      -0.374  -3.521  -2.227  0.00  0.00    +0.000 C 
ATOM     21  C34 UNK     0      -2.592  -2.983  -3.159  0.00  0.00    +0.000 C 
ATOM     22  C35 UNK     0       1.168   0.480  -2.478  0.00  0.00    +0.000 C 
ENDROOT
BRANCH   8  23
ATOM     23  O4  UNK     0      -2.467  -3.347  -0.304  0.00  0.00    +0.000 OA
ATOM     24  H80 UNK     0      -2.575  -3.299   0.683  0.00  0.00    +0.000 HD
ENDBRANCH   8  23
BRANCH  17  25
ATOM     25  O7  UNK     0      -2.281  -0.809  -4.708  0.00  0.00    +0.000 OA
ATOM     26  H85 UNK     0      -1.758  -1.341  -5.364  0.00  0.00    +0.000 HD
ENDBRANCH  17  25
BRANCH   9  27
ATOM     27  O5  UNK     0      -3.663   3.390  -3.410  0.00  0.00    +0.000 OA
ATOM     28  H81 UNK     0      -3.499   4.362  -3.299  0.00  0.00    +0.000 HD
ENDBRANCH   9  27
BRANCH  18  29
ATOM     29  O8  UNK     0       1.075  -0.111   0.266  0.00  0.00    +0.000 OA
BRANCH  29  30
ATOM     30  C39 UNK     0       1.761  -0.412   1.449  0.00  0.00    +0.000 C 
ATOM     31  O11 UNK     0       1.595  -1.526   2.017  0.00  0.00    +0.000 OA
BRANCH  30  32
ATOM     32  C41 UNK     0       2.777   0.549   2.000  0.00  0.00    +0.000 C 
BRANCH  32  33
ATOM     33  O12 UNK     0       2.235   1.846   2.027  0.00  0.00    +0.000 OA
ATOM     34  H95 UNK     0       1.932   2.018   2.954  0.00  0.00    +0.000 HD
ENDBRANCH  32  33
BRANCH  32  35
ATOM     35  C44 UNK     0       4.063   0.565   1.144  0.00  0.00    +0.000 C 
BRANCH  35  36
ATOM     36  C48 UNK     0       4.599  -0.834   0.897  0.00  0.00    +0.000 A 
ATOM     37  C50 UNK     0       5.122  -1.601   1.956  0.00  0.00    +0.000 A 
ATOM     38  C53 UNK     0       5.540  -2.917   1.740  0.00  0.00    +0.000 A 
ATOM     39  C54 UNK     0       5.434  -3.480   0.466  0.00  0.00    +0.000 A 
ATOM     40  C52 UNK     0       4.910  -2.733  -0.593  0.00  0.00    +0.000 A 
ATOM     41  C49 UNK     0       4.492  -1.416  -0.380  0.00  0.00    +0.000 A 
ENDBRANCH  35  36
BRANCH  35  42
ATOM     42  N15 UNK     0       5.090   1.379   1.805  0.00  0.00    +0.000 N 
ATOM     43  C51 UNK     0       6.076   2.129   1.090  0.00  0.00    +0.000 C 
ATOM     44  O14 UNK     0       5.983   2.270  -0.161  0.00  0.00    +0.000 OA
ATOM     45  H97 UNK     0       5.203   1.306   2.843  0.00  0.00    +0.000 HD
BRANCH  43  46
ATOM     46  O13 UNK     0       7.137   2.704   1.808  0.00  0.00    +0.000 OA
BRANCH  46  47
ATOM     47  C55 UNK     0       8.178   3.533   1.274  0.00  0.00    +0.000 C 
ATOM     48  C56 UNK     0       9.113   3.893   2.439  0.00  0.00    +0.000 C 
ATOM     49  C57 UNK     0       8.988   2.775   0.202  0.00  0.00    +0.000 C 
ATOM     50  C58 UNK     0       7.586   4.829   0.690  0.00  0.00    +0.000 C 
ENDBRANCH  46  47
ENDBRANCH  43  46
ENDBRANCH  35  42
ENDBRANCH  32  35
ENDBRANCH  30  32
ENDBRANCH  29  30
ENDBRANCH  18  29
BRANCH   7  51
ATOM     51  O3  UNK     0      -4.056  -1.394   0.373  0.00  0.00    +0.000 OA
BRANCH  51  52
ATOM     52  C37 UNK     0      -5.139  -2.299   0.315  0.00  0.00    +0.000 C 
ATOM     53  O10 UNK     0      -5.461  -2.829  -0.785  0.00  0.00    +0.000 OA
BRANCH  52  54
ATOM     54  C40 UNK     0      -5.909  -2.644   1.533  0.00  0.00    +0.000 A 
ATOM     55  C42 UNK     0      -7.083  -3.415   1.441  0.00  0.00    +0.000 A 
ATOM     56  C45 UNK     0      -7.811  -3.740   2.591  0.00  0.00    +0.000 A 
ATOM     57  C47 UNK     0      -7.373  -3.308   3.843  0.00  0.00    +0.000 A 
ATOM     58  C46 UNK     0      -6.206  -2.547   3.949  0.00  0.00    +0.000 A 
ATOM     59  C43 UNK     0      -5.479  -2.221   2.801  0.00  0.00    +0.000 A 
ENDBRANCH  52  54
ENDBRANCH  51  52
ENDBRANCH   7  51
BRANCH   4  60
ATOM     60  O2  UNK     0      -2.464   1.640   1.345  0.00  0.00    +0.000 OA
BRANCH  60  61
ATOM     61  C36 UNK     0      -2.120   0.875   2.466  0.00  0.00    +0.000 C 
ATOM     62  C38 UNK     0      -1.113   1.416   3.422  0.00  0.00    +0.000 C 
ATOM     63  O9  UNK     0      -2.668  -0.230   2.700  0.00  0.00    +0.000 OA
ENDBRANCH  60  61
ENDBRANCH   4  60
TORSDOF 17
