REMARK  Name = C:\Users\Maximilian\Desktop\Conformers\converted_pdb\conformers_pdb\Docetaxel_conf_18.pdb
REMARK  25 active torsions:
REMARK  status: ('A' for Active; 'I' for Inactive)
REMARK    1  A    between atoms: C17_4  and  O2_58
REMARK    2  A    between atoms: C18_5  and  C29_16
REMARK    3  A    between atoms: C20_7  and  O3_47
REMARK    4  A    between atoms: C21_8  and  O4_45
REMARK    5  A    between atoms: C22_9  and  O5_62
REMARK    6  A    between atoms: C24_11  and  C33_20
REMARK    7  A    between atoms: C24_11  and  C34_21
REMARK    8  A    between atoms: C30_17  and  O7_56
REMARK    9  A    between atoms: C31_18  and  O8_23
REMARK   10  A    between atoms: C32_19  and  C35_22
REMARK   11  A    between atoms: O8_23  and  C39_24
REMARK   12  A    between atoms: C39_24  and  C41_26
REMARK   13  A    between atoms: C41_26  and  O12_27
REMARK   14  A    between atoms: C41_26  and  C44_29
REMARK   15  A    between atoms: C44_29  and  C48_30
REMARK   16  A    between atoms: C44_29  and  N15_36
REMARK   17  A    between atoms: C51_37  and  O13_40
REMARK   18  A    between atoms: O13_40  and  C55_41
REMARK   19  A    between atoms: C55_41  and  C56_42
REMARK   20  A    between atoms: C55_41  and  C57_43
REMARK   21  A    between atoms: C55_41  and  C58_44
REMARK   22  A    between atoms: O3_47  and  C37_48
REMARK   23  A    between atoms: C37_48  and  C40_50
REMARK   24  A    between atoms: O2_58  and  C36_59
REMARK   25  A    between atoms: C36_59  and  C38_60
REMARK                            x       y       z     vdW  Elec       q    Type
REMARK                         _______ _______ _______ _____ _____    ______ ____
ROOT
ATOM      1  O1  UNK     0      -4.841  -0.740  -2.807  0.00  0.00    +0.000 OA
ATOM      2  O6  UNK     0      -3.817  -4.199   1.992  0.00  0.00    +0.000 OA
ATOM      3  C16 UNK     0      -3.100  -1.150   0.066  0.00  0.00    +0.000 C 
ATOM      4  C17 UNK     0      -3.320  -0.465  -1.346  0.00  0.00    +0.000 C 
ATOM      5  C18 UNK     0      -3.643  -2.647   0.170  0.00  0.00    +0.000 C 
ATOM      6  C19 UNK     0      -3.582  -1.343  -2.577  0.00  0.00    +0.000 C 
ATOM      7  C20 UNK     0      -3.421  -0.178   1.293  0.00  0.00    +0.000 C 
ATOM      8  C21 UNK     0      -2.251   0.127   2.338  0.00  0.00    +0.000 C 
ATOM      9  C22 UNK     0      -3.152  -3.409  -1.106  0.00  0.00    +0.000 C 
ATOM     10  C23 UNK     0      -3.755  -2.863  -2.404  0.00  0.00    +0.000 C 
ATOM     11  C24 UNK     0      -1.805  -1.139   3.162  0.00  0.00    +0.000 C 
ATOM     12  C25 UNK     0      -4.708   0.074  -1.663  0.00  0.00    +0.000 C 
ATOM     13  C26 UNK     0      -3.080  -3.429   1.387  0.00  0.00    +0.000 C 
ATOM     14  C27 UNK     0      -1.015   0.790   1.614  0.00  0.00    +0.000 C 
ATOM     15  C28 UNK     0      -1.065  -2.078   2.178  0.00  0.00    +0.000 C 
ATOM     16  C29 UNK     0      -5.204  -2.686   0.259  0.00  0.00    +0.000 C 
ATOM     17  C30 UNK     0      -1.609  -3.451   1.763  0.00  0.00    +0.000 C 
ATOM     18  C31 UNK     0       0.267  -0.079   1.440  0.00  0.00    +0.000 C 
ATOM     19  C32 UNK     0       0.016  -1.576   1.507  0.00  0.00    +0.000 C 
ATOM     20  C33 UNK     0      -0.814  -0.746   4.307  0.00  0.00    +0.000 C 
ATOM     21  C34 UNK     0      -3.017  -1.765   3.932  0.00  0.00    +0.000 C 
ATOM     22  C35 UNK     0       1.013  -2.480   0.808  0.00  0.00    +0.000 C 
ENDROOT
BRANCH   8  23
ATOM     23  O4  UNK     0      -2.766   1.052   3.284  0.00  0.00    +0.000 OA
ATOM     24  H80 UNK     0      -2.826   1.951   2.864  0.00  0.00    +0.000 HD
ENDBRANCH   8  23
BRANCH  17  25
ATOM     25  O7  UNK     0      -1.301  -4.429   2.725  0.00  0.00    +0.000 OA
ATOM     26  H85 UNK     0      -1.772  -4.209   3.565  0.00  0.00    +0.000 HD
ENDBRANCH  17  25
BRANCH   9  27
ATOM     27  O5  UNK     0      -3.374  -4.797  -1.012  0.00  0.00    +0.000 OA
ATOM     28  H81 UNK     0      -4.345  -4.976  -1.110  0.00  0.00    +0.000 HD
ENDBRANCH   9  27
BRANCH  18  29
ATOM     29  O8  UNK     0       0.891   0.240   0.198  0.00  0.00    +0.000 OA
BRANCH  29  30
ATOM     30  C39 UNK     0       1.628   1.415  -0.017  0.00  0.00    +0.000 C 
ATOM     31  O11 UNK     0       1.562   2.376   0.798  0.00  0.00    +0.000 OA
BRANCH  30  32
ATOM     32  C41 UNK     0       2.577   1.485  -1.176  0.00  0.00    +0.000 C 
BRANCH  32  33
ATOM     33  O12 UNK     0       1.960   0.906  -2.295  0.00  0.00    +0.000 OA
ATOM     34  H95 UNK     0       2.307   1.370  -3.102  0.00  0.00    +0.000 HD
ENDBRANCH  32  33
BRANCH  32  35
ATOM     35  C44 UNK     0       3.876   0.712  -0.838  0.00  0.00    +0.000 C 
BRANCH  35  36
ATOM     36  C48 UNK     0       4.544   1.270   0.408  0.00  0.00    +0.000 A 
ATOM     37  C50 UNK     0       5.200   2.517   0.374  0.00  0.00    +0.000 A 
ATOM     38  C53 UNK     0       5.790   3.036   1.532  0.00  0.00    +0.000 A 
ATOM     39  C54 UNK     0       5.717   2.322   2.734  0.00  0.00    +0.000 A 
ATOM     40  C52 UNK     0       5.068   1.084   2.777  0.00  0.00    +0.000 A 
ATOM     41  C49 UNK     0       4.473   0.565   1.622  0.00  0.00    +0.000 A 
ENDBRANCH  35  36
BRANCH  35  42
ATOM     42  N15 UNK     0       4.815   0.751  -1.963  0.00  0.00    +0.000 N 
ATOM     43  C51 UNK     0       5.942  -0.130  -2.039  0.00  0.00    +0.000 C 
ATOM     44  O14 UNK     0       6.074  -1.060  -1.200  0.00  0.00    +0.000 OA
ATOM     45  H97 UNK     0       4.734   1.508  -2.681  0.00  0.00    +0.000 HD
BRANCH  43  46
ATOM     46  O13 UNK     0       6.886   0.060  -3.063  0.00  0.00    +0.000 OA
BRANCH  46  47
ATOM     47  C55 UNK     0       8.039  -0.761  -3.321  0.00  0.00    +0.000 C 
ATOM     48  C56 UNK     0       7.609  -2.201  -3.655  0.00  0.00    +0.000 C 
ATOM     49  C57 UNK     0       8.766  -0.168  -4.538  0.00  0.00    +0.000 C 
ATOM     50  C58 UNK     0       8.998  -0.754  -2.116  0.00  0.00    +0.000 C 
ENDBRANCH  46  47
ENDBRANCH  43  46
ENDBRANCH  35  42
ENDBRANCH  32  35
ENDBRANCH  30  32
ENDBRANCH  29  30
ENDBRANCH  18  29
BRANCH   7  51
ATOM     51  O3  UNK     0      -3.885   1.083   0.789  0.00  0.00    +0.000 OA
BRANCH  51  52
ATOM     52  C37 UNK     0      -5.015   1.771   1.258  0.00  0.00    +0.000 C 
ATOM     53  O10 UNK     0      -5.745   1.268   2.156  0.00  0.00    +0.000 OA
BRANCH  52  54
ATOM     54  C40 UNK     0      -5.351   3.097   0.694  0.00  0.00    +0.000 A 
ATOM     55  C42 UNK     0      -4.485   3.718  -0.226  0.00  0.00    +0.000 A 
ATOM     56  C45 UNK     0      -4.802   4.968  -0.763  0.00  0.00    +0.000 A 
ATOM     57  C47 UNK     0      -5.986   5.611  -0.390  0.00  0.00    +0.000 A 
ATOM     58  C46 UNK     0      -6.852   5.005   0.527  0.00  0.00    +0.000 A 
ATOM     59  C43 UNK     0      -6.538   3.757   1.067  0.00  0.00    +0.000 A 
ENDBRANCH  52  54
ENDBRANCH  51  52
ENDBRANCH   7  51
BRANCH   4  60
ATOM     60  O2  UNK     0      -2.289   0.518  -1.570  0.00  0.00    +0.000 OA
BRANCH  60  61
ATOM     61  C36 UNK     0      -2.167   1.422  -2.641  0.00  0.00    +0.000 C 
ATOM     62  C38 UNK     0      -1.181   2.532  -2.537  0.00  0.00    +0.000 C 
ATOM     63  O9  UNK     0      -2.900   1.349  -3.660  0.00  0.00    +0.000 OA
ENDBRANCH  60  61
ENDBRANCH   4  60
TORSDOF 17
