REMARK  Name = C:\Users\Maximilian\Desktop\Conformers\converted_pdb\conformers_pdb\Docetaxel_conf_60.pdb
REMARK  25 active torsions:
REMARK  status: ('A' for Active; 'I' for Inactive)
REMARK    1  A    between atoms: C17_4  and  O2_58
REMARK    2  A    between atoms: C18_5  and  C29_16
REMARK    3  A    between atoms: C20_7  and  O3_47
REMARK    4  A    between atoms: C21_8  and  O4_45
REMARK    5  A    between atoms: C22_9  and  O5_62
REMARK    6  A    between atoms: C24_11  and  C33_20
REMARK    7  A    between atoms: C24_11  and  C34_21
REMARK    8  A    between atoms: C30_17  and  O7_56
REMARK    9  A    between atoms: C31_18  and  O8_23
REMARK   10  A    between atoms: C32_19  and  C35_22
REMARK   11  A    between atoms: O8_23  and  C39_24
REMARK   12  A    between atoms: C39_24  and  C41_26
REMARK   13  A    between atoms: C41_26  and  O12_27
REMARK   14  A    between atoms: C41_26  and  C44_29
REMARK   15  A    between atoms: C44_29  and  C48_30
REMARK   16  A    between atoms: C44_29  and  N15_36
REMARK   17  A    between atoms: C51_37  and  O13_40
REMARK   18  A    between atoms: O13_40  and  C55_41
REMARK   19  A    between atoms: C55_41  and  C56_42
REMARK   20  A    between atoms: C55_41  and  C57_43
REMARK   21  A    between atoms: C55_41  and  C58_44
REMARK   22  A    between atoms: O3_47  and  C37_48
REMARK   23  A    between atoms: C37_48  and  C40_50
REMARK   24  A    between atoms: O2_58  and  C36_59
REMARK   25  A    between atoms: C36_59  and  C38_60
REMARK                            x       y       z     vdW  Elec       q    Type
REMARK                         _______ _______ _______ _____ _____    ______ ____
ROOT
ATOM      1  O1  UNK     0      -5.516  -1.419  -2.000  0.00  0.00    +0.000 OA
ATOM      2  O6  UNK     0      -4.380  -2.513   3.829  0.00  0.00    +0.000 OA
ATOM      3  C16 UNK     0      -3.446  -0.839   0.646  0.00  0.00    +0.000 C 
ATOM      4  C17 UNK     0      -3.708  -0.970  -0.925  0.00  0.00    +0.000 C 
ATOM      5  C18 UNK     0      -4.237  -1.924   1.526  0.00  0.00    +0.000 C 
ATOM      6  C19 UNK     0      -4.466  -2.198  -1.476  0.00  0.00    +0.000 C 
ATOM      7  C20 UNK     0      -3.473   0.670   1.217  0.00  0.00    +0.000 C 
ATOM      8  C21 UNK     0      -2.222   1.194   2.064  0.00  0.00    +0.000 C 
ATOM      9  C22 UNK     0      -4.179  -3.299   0.779  0.00  0.00    +0.000 C 
ATOM     10  C23 UNK     0      -4.992  -3.267  -0.512  0.00  0.00    +0.000 C 
ATOM     11  C24 UNK     0      -1.929   0.368   3.379  0.00  0.00    +0.000 C 
ATOM     12  C25 UNK     0      -4.906  -0.236  -1.549  0.00  0.00    +0.000 C 
ATOM     13  C26 UNK     0      -3.622  -2.198   2.919  0.00  0.00    +0.000 C 
ATOM     14  C27 UNK     0      -0.933   1.257   1.147  0.00  0.00    +0.000 C 
ATOM     15  C28 UNK     0      -1.387  -1.002   2.903  0.00  0.00    +0.000 C 
ATOM     16  C29 UNK     0      -5.723  -1.472   1.734  0.00  0.00    +0.000 C 
ATOM     17  C30 UNK     0      -2.128  -2.299   3.198  0.00  0.00    +0.000 C 
ATOM     18  C31 UNK     0       0.242   0.330   1.548  0.00  0.00    +0.000 C 
ATOM     19  C32 UNK     0      -0.286  -1.001   2.072  0.00  0.00    +0.000 C 
ATOM     20  C33 UNK     0      -0.831   1.074   4.263  0.00  0.00    +0.000 C 
ATOM     21  C34 UNK     0      -3.177   0.323   4.321  0.00  0.00    +0.000 C 
ATOM     22  C35 UNK     0       0.427  -2.274   1.669  0.00  0.00    +0.000 C 
ENDROOT
BRANCH   8  23
ATOM     23  O4  UNK     0      -2.538   2.503   2.498  0.00  0.00    +0.000 OA
ATOM     24  H80 UNK     0      -2.509   3.130   1.728  0.00  0.00    +0.000 HD
ENDBRANCH   8  23
BRANCH  17  25
ATOM     25  O7  UNK     0      -1.893  -2.640   4.539  0.00  0.00    +0.000 OA
ATOM     26  H85 UNK     0      -2.075  -3.614   4.622  0.00  0.00    +0.000 HD
ENDBRANCH  17  25
BRANCH   9  27
ATOM     27  O5  UNK     0      -4.579  -4.382   1.589  0.00  0.00    +0.000 OA
ATOM     28  H81 UNK     0      -5.566  -4.346   1.702  0.00  0.00    +0.000 HD
ENDBRANCH   9  27
BRANCH  18  29
ATOM     29  O8  UNK     0       1.127   0.178   0.428  0.00  0.00    +0.000 OA
BRANCH  29  30
ATOM     30  C39 UNK     0       2.008   1.199   0.028  0.00  0.00    +0.000 C 
ATOM     31  O11 UNK     0       2.061   2.284   0.670  0.00  0.00    +0.000 OA
BRANCH  30  32
ATOM     32  C41 UNK     0       2.932   0.992  -1.131  0.00  0.00    +0.000 C 
BRANCH  32  33
ATOM     33  O12 UNK     0       2.239   0.298  -2.135  0.00  0.00    +0.000 OA
ATOM     34  H95 UNK     0       2.600   0.600  -3.006  0.00  0.00    +0.000 HD
ENDBRANCH  32  33
BRANCH  32  35
ATOM     35  C44 UNK     0       4.198   0.207  -0.726  0.00  0.00    +0.000 C 
BRANCH  35  36
ATOM     36  C48 UNK     0       4.947   0.901   0.398  0.00  0.00    +0.000 A 
ATOM     37  C50 UNK     0       4.896   0.381   1.703  0.00  0.00    +0.000 A 
ATOM     38  C53 UNK     0       5.589   1.007   2.742  0.00  0.00    +0.000 A 
ATOM     39  C54 UNK     0       6.338   2.164   2.486  0.00  0.00    +0.000 A 
ATOM     40  C52 UNK     0       6.357   2.713   1.204  0.00  0.00    +0.000 A 
ATOM     41  C49 UNK     0       5.673   2.083   0.160  0.00  0.00    +0.000 A 
ENDBRANCH  35  36
BRANCH  35  42
ATOM     42  N15 UNK     0       5.087   0.048  -1.881  0.00  0.00    +0.000 N 
ATOM     43  C51 UNK     0       6.106  -0.958  -1.936  0.00  0.00    +0.000 C 
ATOM     44  O14 UNK     0       6.206  -1.809  -1.013  0.00  0.00    +0.000 OA
ATOM     45  H97 UNK     0       5.042   0.738  -2.669  0.00  0.00    +0.000 HD
BRANCH  43  46
ATOM     46  O13 UNK     0       6.955  -0.985  -3.050  0.00  0.00    +0.000 OA
BRANCH  46  47
ATOM     47  C55 UNK     0       7.963  -1.966  -3.333  0.00  0.00    +0.000 C 
ATOM     48  C56 UNK     0       8.609  -1.579  -4.676  0.00  0.00    +0.000 C 
ATOM     49  C57 UNK     0       9.051  -1.960  -2.238  0.00  0.00    +0.000 C 
ATOM     50  C58 UNK     0       7.329  -3.363  -3.465  0.00  0.00    +0.000 C 
ENDBRANCH  46  47
ENDBRANCH  43  46
ENDBRANCH  35  42
ENDBRANCH  32  35
ENDBRANCH  30  32
ENDBRANCH  29  30
ENDBRANCH  18  29
BRANCH   7  51
ATOM     51  O3  UNK     0      -3.691   1.618   0.158  0.00  0.00    +0.000 OA
BRANCH  51  52
ATOM     52  C37 UNK     0      -4.645   2.657   0.187  0.00  0.00    +0.000 C 
ATOM     53  O10 UNK     0      -5.480   2.743   1.131  0.00  0.00    +0.000 OA
BRANCH  52  54
ATOM     54  C40 UNK     0      -4.682   3.654  -0.900  0.00  0.00    +0.000 A 
ATOM     55  C42 UNK     0      -3.522   3.982  -1.615  0.00  0.00    +0.000 A 
ATOM     56  C45 UNK     0      -3.579   4.861  -2.703  0.00  0.00    +0.000 A 
ATOM     57  C47 UNK     0      -4.798   5.445  -3.063  0.00  0.00    +0.000 A 
ATOM     58  C46 UNK     0      -5.956   5.156  -2.329  0.00  0.00    +0.000 A 
ATOM     59  C43 UNK     0      -5.896   4.275  -1.244  0.00  0.00    +0.000 A 
ENDBRANCH  52  54
ENDBRANCH  51  52
ENDBRANCH   7  51
BRANCH   4  60
ATOM     60  O2  UNK     0      -2.480  -0.919  -1.669  0.00  0.00    +0.000 OA
BRANCH  60  61
ATOM     61  C36 UNK     0      -1.961   0.146  -2.409  0.00  0.00    +0.000 C 
ATOM     62  C38 UNK     0      -0.808  -0.115  -3.315  0.00  0.00    +0.000 C 
ATOM     63  O9  UNK     0      -2.407   1.316  -2.288  0.00  0.00    +0.000 OA
ENDBRANCH  60  61
ENDBRANCH   4  60
TORSDOF 17
