REMARK  Name = C:\Users\Maximilian\Desktop\Conformers\converted_pdb\conformers_pdb\Docetaxel_conf_14.pdb
REMARK  25 active torsions:
REMARK  status: ('A' for Active; 'I' for Inactive)
REMARK    1  A    between atoms: C17_4  and  O2_58
REMARK    2  A    between atoms: C18_5  and  C29_16
REMARK    3  A    between atoms: C20_7  and  O3_47
REMARK    4  A    between atoms: C21_8  and  O4_45
REMARK    5  A    between atoms: C22_9  and  O5_62
REMARK    6  A    between atoms: C24_11  and  C33_20
REMARK    7  A    between atoms: C24_11  and  C34_21
REMARK    8  A    between atoms: C30_17  and  O7_56
REMARK    9  A    between atoms: C31_18  and  O8_23
REMARK   10  A    between atoms: C32_19  and  C35_22
REMARK   11  A    between atoms: O8_23  and  C39_24
REMARK   12  A    between atoms: C39_24  and  C41_26
REMARK   13  A    between atoms: C41_26  and  O12_27
REMARK   14  A    between atoms: C41_26  and  C44_29
REMARK   15  A    between atoms: C44_29  and  C48_30
REMARK   16  A    between atoms: C44_29  and  N15_36
REMARK   17  A    between atoms: C51_37  and  O13_40
REMARK   18  A    between atoms: O13_40  and  C55_41
REMARK   19  A    between atoms: C55_41  and  C56_42
REMARK   20  A    between atoms: C55_41  and  C57_43
REMARK   21  A    between atoms: C55_41  and  C58_44
REMARK   22  A    between atoms: O3_47  and  C37_48
REMARK   23  A    between atoms: C37_48  and  C40_50
REMARK   24  A    between atoms: O2_58  and  C36_59
REMARK   25  A    between atoms: C36_59  and  C38_60
REMARK                            x       y       z     vdW  Elec       q    Type
REMARK                         _______ _______ _______ _____ _____    ______ ____
ROOT
ATOM      1  O1  UNK     0      -5.512  -3.476  -1.732  0.00  0.00    +0.000 OA
ATOM      2  O6  UNK     0      -3.211   1.435  -4.087  0.00  0.00    +0.000 OA
ATOM      3  C16 UNK     0      -3.948  -0.587  -1.356  0.00  0.00    +0.000 C 
ATOM      4  C17 UNK     0      -5.069  -1.578  -0.904  0.00  0.00    +0.000 C 
ATOM      5  C18 UNK     0      -3.515  -0.680  -2.954  0.00  0.00    +0.000 C 
ATOM      6  C19 UNK     0      -6.007  -2.171  -1.951  0.00  0.00    +0.000 C 
ATOM      7  C20 UNK     0      -2.959  -0.379  -0.090  0.00  0.00    +0.000 C 
ATOM      8  C21 UNK     0      -1.514  -0.056  -0.476  0.00  0.00    +0.000 C 
ATOM      9  C22 UNK     0      -4.905  -0.583  -3.708  0.00  0.00    +0.000 C 
ATOM     10  C23 UNK     0      -5.861  -1.760  -3.427  0.00  0.00    +0.000 C 
ATOM     11  C24 UNK     0      -1.308   1.457  -1.011  0.00  0.00    +0.000 C 
ATOM     12  C25 UNK     0      -4.635  -3.022  -0.729  0.00  0.00    +0.000 C 
ATOM     13  C26 UNK     0      -2.618   0.520  -3.522  0.00  0.00    +0.000 C 
ATOM     14  C27 UNK     0      -0.312  -0.294   0.466  0.00  0.00    +0.000 C 
ATOM     15  C28 UNK     0      -0.396   1.163  -2.175  0.00  0.00    +0.000 C 
ATOM     16  C29 UNK     0      -2.899  -2.043  -3.452  0.00  0.00    +0.000 C 
ATOM     17  C30 UNK     0      -1.061   0.707  -3.519  0.00  0.00    +0.000 C 
ATOM     18  C31 UNK     0       1.010  -0.128  -0.426  0.00  0.00    +0.000 C 
ATOM     19  C32 UNK     0       0.835   0.637  -1.797  0.00  0.00    +0.000 C 
ATOM     20  C33 UNK     0      -2.550   2.367  -1.350  0.00  0.00    +0.000 C 
ATOM     21  C34 UNK     0      -0.574   2.455  -0.019  0.00  0.00    +0.000 C 
ATOM     22  C35 UNK     0       1.928   0.454  -2.817  0.00  0.00    +0.000 C 
ENDROOT
BRANCH   8  23
ATOM     23  O4  UNK     0      -1.269  -1.059  -1.441  0.00  0.00    +0.000 OA
ATOM     24  H80 UNK     0      -1.301  -1.966  -1.026  0.00  0.00    +0.000 HD
ENDBRANCH   8  23
BRANCH  17  25
ATOM     25  O7  UNK     0      -0.463  -0.461  -4.012  0.00  0.00    +0.000 OA
ATOM     26  H85 UNK     0      -0.684  -0.517  -4.980  0.00  0.00    +0.000 HD
ENDBRANCH  17  25
BRANCH   9  27
ATOM     27  O5  UNK     0      -4.711  -0.508  -5.103  0.00  0.00    +0.000 OA
ATOM     28  H81 UNK     0      -5.536  -0.111  -5.494  0.00  0.00    +0.000 HD
ENDBRANCH   9  27
BRANCH  18  29
ATOM     29  O8  UNK     0       2.065   0.457   0.342  0.00  0.00    +0.000 OA
BRANCH  29  30
ATOM     30  C39 UNK     0       2.728  -0.229   1.367  0.00  0.00    +0.000 C 
ATOM     31  O11 UNK     0       2.617  -1.480   1.469  0.00  0.00    +0.000 OA
BRANCH  30  32
ATOM     32  C41 UNK     0       3.599   0.519   2.348  0.00  0.00    +0.000 C 
BRANCH  32  33
ATOM     33  O12 UNK     0       2.926   1.637   2.874  0.00  0.00    +0.000 OA
ATOM     34  H95 UNK     0       2.629   2.204   2.114  0.00  0.00    +0.000 HD
ENDBRANCH  32  33
BRANCH  32  35
ATOM     35  C44 UNK     0       4.993   0.907   1.789  0.00  0.00    +0.000 C 
BRANCH  35  36
ATOM     36  C48 UNK     0       4.938   1.982   0.711  0.00  0.00    +0.000 A 
ATOM     37  C50 UNK     0       4.874   1.661  -0.659  0.00  0.00    +0.000 A 
ATOM     38  C53 UNK     0       4.795   2.673  -1.620  0.00  0.00    +0.000 A 
ATOM     39  C54 UNK     0       4.777   4.013  -1.232  0.00  0.00    +0.000 A 
ATOM     40  C52 UNK     0       4.853   4.347   0.119  0.00  0.00    +0.000 A 
ATOM     41  C49 UNK     0       4.928   3.340   1.087  0.00  0.00    +0.000 A 
ENDBRANCH  35  36
BRANCH  35  42
ATOM     42  N15 UNK     0       5.713  -0.288   1.322  0.00  0.00    +0.000 N 
ATOM     43  C51 UNK     0       7.007  -0.685   1.798  0.00  0.00    +0.000 C 
ATOM     44  O14 UNK     0       7.618   0.013   2.651  0.00  0.00    +0.000 OA
ATOM     45  H97 UNK     0       5.267  -0.908   0.609  0.00  0.00    +0.000 HD
BRANCH  43  46
ATOM     46  O13 UNK     0       7.569  -1.872   1.303  0.00  0.00    +0.000 OA
BRANCH  46  47
ATOM     47  C55 UNK     0       8.803  -2.470   1.733  0.00  0.00    +0.000 C 
ATOM     48  C56 UNK     0       9.997  -1.547   1.420  0.00  0.00    +0.000 C 
ATOM     49  C57 UNK     0       8.748  -2.804   3.238  0.00  0.00    +0.000 C 
ATOM     50  C58 UNK     0       8.969  -3.778   0.941  0.00  0.00    +0.000 C 
ENDBRANCH  46  47
ENDBRANCH  43  46
ENDBRANCH  35  42
ENDBRANCH  32  35
ENDBRANCH  30  32
ENDBRANCH  29  30
ENDBRANCH  18  29
BRANCH   7  51
ATOM     51  O3  UNK     0      -3.490   0.616   0.790  0.00  0.00    +0.000 OA
BRANCH  51  52
ATOM     52  C37 UNK     0      -3.604   0.452   2.179  0.00  0.00    +0.000 C 
ATOM     53  O10 UNK     0      -2.998  -0.490   2.765  0.00  0.00    +0.000 OA
BRANCH  52  54
ATOM     54  C40 UNK     0      -4.478   1.365   2.947  0.00  0.00    +0.000 A 
ATOM     55  C42 UNK     0      -4.749   1.125   4.308  0.00  0.00    +0.000 A 
ATOM     56  C45 UNK     0      -5.613   1.966   5.015  0.00  0.00    +0.000 A 
ATOM     57  C47 UNK     0      -6.206   3.057   4.377  0.00  0.00    +0.000 A 
ATOM     58  C46 UNK     0      -5.940   3.309   3.028  0.00  0.00    +0.000 A 
ATOM     59  C43 UNK     0      -5.086   2.465   2.312  0.00  0.00    +0.000 A 
ENDBRANCH  52  54
ENDBRANCH  51  52
ENDBRANCH   7  51
BRANCH   4  60
ATOM     60  O2  UNK     0      -5.736  -1.062   0.270  0.00  0.00    +0.000 OA
BRANCH  60  61
ATOM     61  C36 UNK     0      -6.741  -1.692   1.011  0.00  0.00    +0.000 C 
ATOM     62  C38 UNK     0      -6.478  -2.059   2.433  0.00  0.00    +0.000 C 
ATOM     63  O9  UNK     0      -7.904  -1.790   0.546  0.00  0.00    +0.000 OA
ENDBRANCH  60  61
ENDBRANCH   4  60
TORSDOF 17
