REMARK  Name = C:\Users\Maximilian\Desktop\Conformers\converted_pdb\conformers_pdb\Docetaxel_conf_46.pdb
REMARK  25 active torsions:
REMARK  status: ('A' for Active; 'I' for Inactive)
REMARK    1  A    between atoms: C17_4  and  O2_58
REMARK    2  A    between atoms: C18_5  and  C29_16
REMARK    3  A    between atoms: C20_7  and  O3_47
REMARK    4  A    between atoms: C21_8  and  O4_45
REMARK    5  A    between atoms: C22_9  and  O5_62
REMARK    6  A    between atoms: C24_11  and  C33_20
REMARK    7  A    between atoms: C24_11  and  C34_21
REMARK    8  A    between atoms: C30_17  and  O7_56
REMARK    9  A    between atoms: C31_18  and  O8_23
REMARK   10  A    between atoms: C32_19  and  C35_22
REMARK   11  A    between atoms: O8_23  and  C39_24
REMARK   12  A    between atoms: C39_24  and  C41_26
REMARK   13  A    between atoms: C41_26  and  O12_27
REMARK   14  A    between atoms: C41_26  and  C44_29
REMARK   15  A    between atoms: C44_29  and  C48_30
REMARK   16  A    between atoms: C44_29  and  N15_36
REMARK   17  A    between atoms: C51_37  and  O13_40
REMARK   18  A    between atoms: O13_40  and  C55_41
REMARK   19  A    between atoms: C55_41  and  C56_42
REMARK   20  A    between atoms: C55_41  and  C57_43
REMARK   21  A    between atoms: C55_41  and  C58_44
REMARK   22  A    between atoms: O3_47  and  C37_48
REMARK   23  A    between atoms: C37_48  and  C40_50
REMARK   24  A    between atoms: O2_58  and  C36_59
REMARK   25  A    between atoms: C36_59  and  C38_60
REMARK                            x       y       z     vdW  Elec       q    Type
REMARK                         _______ _______ _______ _____ _____    ______ ____
ROOT
ATOM      1  O1  UNK     0      -3.478  -2.875  -0.177  0.00  0.00    +0.000 OA
ATOM      2  O6  UNK     0      -2.254  -0.274   4.947  0.00  0.00    +0.000 OA
ATOM      3  C16 UNK     0      -2.310  -0.078   1.228  0.00  0.00    +0.000 C 
ATOM      4  C17 UNK     0      -2.593  -0.952  -0.057  0.00  0.00    +0.000 C 
ATOM      5  C18 UNK     0      -2.703  -0.719   2.648  0.00  0.00    +0.000 C 
ATOM      6  C19 UNK     0      -2.172  -2.407   0.086  0.00  0.00    +0.000 C 
ATOM      7  C20 UNK     0      -2.650   1.462   1.068  0.00  0.00    +0.000 C 
ATOM      8  C21 UNK     0      -1.440   2.498   1.137  0.00  0.00    +0.000 C 
ATOM      9  C22 UNK     0      -2.594  -2.299   2.610  0.00  0.00    +0.000 C 
ATOM     10  C23 UNK     0      -1.681  -2.815   1.485  0.00  0.00    +0.000 C 
ATOM     11  C24 UNK     0      -0.687   2.497   2.523  0.00  0.00    +0.000 C 
ATOM     12  C25 UNK     0      -3.969  -1.555  -0.293  0.00  0.00    +0.000 C 
ATOM     13  C26 UNK     0      -1.787  -0.232   3.814  0.00  0.00    +0.000 C 
ATOM     14  C27 UNK     0      -0.407   2.270  -0.024  0.00  0.00    +0.000 C 
ATOM     15  C28 UNK     0       0.051   1.157   2.654  0.00  0.00    +0.000 C 
ATOM     16  C29 UNK     0      -4.163  -0.317   3.065  0.00  0.00    +0.000 C 
ATOM     17  C30 UNK     0      -0.300   0.116   3.720  0.00  0.00    +0.000 C 
ATOM     18  C31 UNK     0       0.882   1.446   0.293  0.00  0.00    +0.000 C 
ATOM     19  C32 UNK     0       0.950   0.828   1.681  0.00  0.00    +0.000 C 
ATOM     20  C33 UNK     0       0.375   3.639   2.583  0.00  0.00    +0.000 C 
ATOM     21  C34 UNK     0      -1.639   2.826   3.713  0.00  0.00    +0.000 C 
ATOM     22  C35 UNK     0       2.004  -0.234   1.895  0.00  0.00    +0.000 C 
ENDROOT
BRANCH   8  23
ATOM     23  O4  UNK     0      -1.998   3.788   0.984  0.00  0.00    +0.000 OA
ATOM     24  H80 UNK     0      -2.296   3.902   0.044  0.00  0.00    +0.000 HD
ENDBRANCH   8  23
BRANCH  17  25
ATOM     25  O7  UNK     0       0.187   0.579   4.955  0.00  0.00    +0.000 OA
ATOM     26  H85 UNK     0       0.359  -0.214   5.527  0.00  0.00    +0.000 HD
ENDBRANCH  17  25
BRANCH   9  27
ATOM     27  O5  UNK     0      -3.858  -2.911   2.490  0.00  0.00    +0.000 OA
ATOM     28  H81 UNK     0      -3.758  -3.859   2.776  0.00  0.00    +0.000 HD
ENDBRANCH   9  27
BRANCH  18  29
ATOM     29  O8  UNK     0       1.020   0.393  -0.664  0.00  0.00    +0.000 OA
BRANCH  29  30
ATOM     30  C39 UNK     0       1.519   0.575  -1.957  0.00  0.00    +0.000 C 
ATOM     31  O11 UNK     0       1.779   1.733  -2.386  0.00  0.00    +0.000 OA
BRANCH  30  32
ATOM     32  C41 UNK     0       1.807  -0.622  -2.824  0.00  0.00    +0.000 C 
BRANCH  32  33
ATOM     33  O12 UNK     0       0.954  -1.696  -2.512  0.00  0.00    +0.000 OA
ATOM     34  H95 UNK     0       1.081  -1.935  -1.557  0.00  0.00    +0.000 HD
ENDBRANCH  32  33
BRANCH  32  35
ATOM     35  C44 UNK     0       3.302  -1.021  -2.759  0.00  0.00    +0.000 C 
BRANCH  35  36
ATOM     36  C48 UNK     0       3.599  -2.206  -3.658  0.00  0.00    +0.000 A 
ATOM     37  C50 UNK     0       4.195  -1.998  -4.915  0.00  0.00    +0.000 A 
ATOM     38  C53 UNK     0       4.444  -3.074  -5.769  0.00  0.00    +0.000 A 
ATOM     39  C54 UNK     0       4.096  -4.371  -5.384  0.00  0.00    +0.000 A 
ATOM     40  C52 UNK     0       3.491  -4.591  -4.144  0.00  0.00    +0.000 A 
ATOM     41  C49 UNK     0       3.244  -3.518  -3.283  0.00  0.00    +0.000 A 
ENDBRANCH  35  36
BRANCH  35  42
ATOM     42  N15 UNK     0       3.731  -1.298  -1.381  0.00  0.00    +0.000 N 
ATOM     43  C51 UNK     0       4.875  -0.681  -0.777  0.00  0.00    +0.000 C 
ATOM     44  O14 UNK     0       5.573   0.141  -1.429  0.00  0.00    +0.000 OA
ATOM     45  H97 UNK     0       3.220  -2.005  -0.809  0.00  0.00    +0.000 HD
BRANCH  43  46
ATOM     46  O13 UNK     0       5.188  -0.996   0.554  0.00  0.00    +0.000 OA
BRANCH  46  47
ATOM     47  C55 UNK     0       6.173  -0.346   1.371  0.00  0.00    +0.000 C 
ATOM     48  C56 UNK     0       6.097  -0.984   2.767  0.00  0.00    +0.000 C 
ATOM     49  C57 UNK     0       7.585  -0.568   0.800  0.00  0.00    +0.000 C 
ATOM     50  C58 UNK     0       5.869   1.160   1.495  0.00  0.00    +0.000 C 
ENDBRANCH  46  47
ENDBRANCH  43  46
ENDBRANCH  35  42
ENDBRANCH  32  35
ENDBRANCH  30  32
ENDBRANCH  29  30
ENDBRANCH  18  29
BRANCH   7  51
ATOM     51  O3  UNK     0      -3.405   1.666  -0.133  0.00  0.00    +0.000 OA
BRANCH  51  52
ATOM     52  C37 UNK     0      -4.633   2.344  -0.202  0.00  0.00    +0.000 C 
ATOM     53  O10 UNK     0      -5.089   2.944   0.811  0.00  0.00    +0.000 OA
BRANCH  52  54
ATOM     54  C40 UNK     0      -5.395   2.355  -1.469  0.00  0.00    +0.000 A 
ATOM     55  C42 UNK     0      -6.681   2.920  -1.537  0.00  0.00    +0.000 A 
ATOM     56  C45 UNK     0      -7.398   2.904  -2.737  0.00  0.00    +0.000 A 
ATOM     57  C47 UNK     0      -6.847   2.308  -3.874  0.00  0.00    +0.000 A 
ATOM     58  C46 UNK     0      -5.566   1.754  -3.821  0.00  0.00    +0.000 A 
ATOM     59  C43 UNK     0      -4.849   1.770  -2.623  0.00  0.00    +0.000 A 
ENDBRANCH  52  54
ENDBRANCH  51  52
ENDBRANCH   7  51
BRANCH   4  60
ATOM     60  O2  UNK     0      -2.036  -0.343  -1.241  0.00  0.00    +0.000 OA
BRANCH  60  61
ATOM     61  C36 UNK     0      -2.061  -0.838  -2.563  0.00  0.00    +0.000 C 
ATOM     62  C38 UNK     0      -1.588   0.033  -3.679  0.00  0.00    +0.000 C 
ATOM     63  O9  UNK     0      -2.499  -1.988  -2.833  0.00  0.00    +0.000 OA
ENDBRANCH  60  61
ENDBRANCH   4  60
TORSDOF 17
