REMARK  Name = C:\Users\Maximilian\Desktop\Conformers\converted_pdb\conformers_pdb\Docetaxel_conf_71.pdb
REMARK  25 active torsions:
REMARK  status: ('A' for Active; 'I' for Inactive)
REMARK    1  A    between atoms: C17_4  and  O2_58
REMARK    2  A    between atoms: C18_5  and  C29_16
REMARK    3  A    between atoms: C20_7  and  O3_47
REMARK    4  A    between atoms: C21_8  and  O4_45
REMARK    5  A    between atoms: C22_9  and  O5_62
REMARK    6  A    between atoms: C24_11  and  C33_20
REMARK    7  A    between atoms: C24_11  and  C34_21
REMARK    8  A    between atoms: C30_17  and  O7_56
REMARK    9  A    between atoms: C31_18  and  O8_23
REMARK   10  A    between atoms: C32_19  and  C35_22
REMARK   11  A    between atoms: O8_23  and  C39_24
REMARK   12  A    between atoms: C39_24  and  C41_26
REMARK   13  A    between atoms: C41_26  and  O12_27
REMARK   14  A    between atoms: C41_26  and  C44_29
REMARK   15  A    between atoms: C44_29  and  C48_30
REMARK   16  A    between atoms: C44_29  and  N15_36
REMARK   17  A    between atoms: C51_37  and  O13_40
REMARK   18  A    between atoms: O13_40  and  C55_41
REMARK   19  A    between atoms: C55_41  and  C56_42
REMARK   20  A    between atoms: C55_41  and  C57_43
REMARK   21  A    between atoms: C55_41  and  C58_44
REMARK   22  A    between atoms: O3_47  and  C37_48
REMARK   23  A    between atoms: C37_48  and  C40_50
REMARK   24  A    between atoms: O2_58  and  C36_59
REMARK   25  A    between atoms: C36_59  and  C38_60
REMARK                            x       y       z     vdW  Elec       q    Type
REMARK                         _______ _______ _______ _____ _____    ______ ____
ROOT
ATOM      1  O1  UNK     0      -4.215   1.808   1.742  0.00  0.00    +0.000 OA
ATOM      2  O6  UNK     0      -2.677   2.760  -3.869  0.00  0.00    +0.000 OA
ATOM      3  C16 UNK     0      -2.397   0.730  -0.863  0.00  0.00    +0.000 C 
ATOM      4  C17 UNK     0      -2.804   0.646   0.660  0.00  0.00    +0.000 C 
ATOM      5  C18 UNK     0      -2.649   2.144  -1.549  0.00  0.00    +0.000 C 
ATOM      6  C19 UNK     0      -2.833   1.944   1.473  0.00  0.00    +0.000 C 
ATOM      7  C20 UNK     0      -2.836  -0.545  -1.700  0.00  0.00    +0.000 C 
ATOM      8  C21 UNK     0      -1.684  -1.416  -2.388  0.00  0.00    +0.000 C 
ATOM      9  C22 UNK     0      -1.955   3.203  -0.635  0.00  0.00    +0.000 C 
ATOM     10  C23 UNK     0      -2.559   3.299   0.777  0.00  0.00    +0.000 C 
ATOM     11  C24 UNK     0      -0.978  -0.689  -3.587  0.00  0.00    +0.000 C 
ATOM     12  C25 UNK     0      -4.288   0.613   0.997  0.00  0.00    +0.000 C 
ATOM     13  C26 UNK     0      -2.017   2.264  -2.966  0.00  0.00    +0.000 C 
ATOM     14  C27 UNK     0      -0.605  -1.886  -1.343  0.00  0.00    +0.000 C 
ATOM     15  C28 UNK     0      -0.182   0.495  -3.005  0.00  0.00    +0.000 C 
ATOM     16  C29 UNK     0      -4.173   2.466  -1.678  0.00  0.00    +0.000 C 
ATOM     17  C30 UNK     0      -0.553   1.957  -3.266  0.00  0.00    +0.000 C 
ATOM     18  C31 UNK     0       0.714  -1.055  -1.230  0.00  0.00    +0.000 C 
ATOM     19  C32 UNK     0       0.765   0.220  -2.060  0.00  0.00    +0.000 C 
ATOM     20  C33 UNK     0       0.029  -1.639  -4.312  0.00  0.00    +0.000 C 
ATOM     21  C34 UNK     0      -2.003  -0.338  -4.710  0.00  0.00    +0.000 C 
ATOM     22  C35 UNK     0       1.858   1.209  -1.716  0.00  0.00    +0.000 C 
ENDROOT
BRANCH   8  23
ATOM     23  O4  UNK     0      -2.304  -2.569  -2.931  0.00  0.00    +0.000 OA
ATOM     24  H80 UNK     0      -2.551  -3.186  -2.191  0.00  0.00    +0.000 HD
ENDBRANCH   8  23
BRANCH  17  25
ATOM     25  O7  UNK     0      -0.143   2.354  -4.553  0.00  0.00    +0.000 OA
ATOM     26  H85 UNK     0      -0.806   2.055  -5.220  0.00  0.00    +0.000 HD
ENDBRANCH  17  25
BRANCH   9  27
ATOM     27  O5  UNK     0      -1.911   4.476  -1.237  0.00  0.00    +0.000 OA
ATOM     28  H81 UNK     0      -2.834   4.841  -1.258  0.00  0.00    +0.000 HD
ENDBRANCH   9  27
BRANCH  18  29
ATOM     29  O8  UNK     0       0.943  -0.701   0.138  0.00  0.00    +0.000 OA
BRANCH  29  30
ATOM     30  C39 UNK     0       1.467  -1.589   1.083  0.00  0.00    +0.000 C 
ATOM     31  O11 UNK     0       1.654  -2.806   0.790  0.00  0.00    +0.000 OA
BRANCH  30  32
ATOM     32  C41 UNK     0       1.903  -1.074   2.425  0.00  0.00    +0.000 C 
BRANCH  32  33
ATOM     33  O12 UNK     0       1.224   0.120   2.729  0.00  0.00    +0.000 OA
ATOM     34  H95 UNK     0       0.361  -0.130   3.150  0.00  0.00    +0.000 HD
ENDBRANCH  32  33
BRANCH  32  35
ATOM     35  C44 UNK     0       3.430  -0.837   2.439  0.00  0.00    +0.000 C 
BRANCH  35  36
ATOM     36  C48 UNK     0       3.906  -0.585   3.856  0.00  0.00    +0.000 A 
ATOM     37  C50 UNK     0       4.430  -1.646   4.615  0.00  0.00    +0.000 A 
ATOM     38  C53 UNK     0       4.827  -1.442   5.939  0.00  0.00    +0.000 A 
ATOM     39  C54 UNK     0       4.689  -0.180   6.522  0.00  0.00    +0.000 A 
ATOM     40  C52 UNK     0       4.155   0.879   5.784  0.00  0.00    +0.000 A 
ATOM     41  C49 UNK     0       3.762   0.681   4.458  0.00  0.00    +0.000 A 
ENDBRANCH  35  36
BRANCH  35  42
ATOM     42  N15 UNK     0       3.807   0.278   1.560  0.00  0.00    +0.000 N 
ATOM     43  C51 UNK     0       5.157   0.495   1.139  0.00  0.00    +0.000 C 
ATOM     44  O14 UNK     0       6.065  -0.303   1.498  0.00  0.00    +0.000 OA
ATOM     45  H97 UNK     0       3.092   0.970   1.242  0.00  0.00    +0.000 HD
BRANCH  43  46
ATOM     46  O13 UNK     0       5.442   1.595   0.314  0.00  0.00    +0.000 OA
BRANCH  46  47
ATOM     47  C55 UNK     0       6.716   1.927  -0.255  0.00  0.00    +0.000 C 
ATOM     48  C56 UNK     0       6.527   3.221  -1.060  0.00  0.00    +0.000 C 
ATOM     49  C57 UNK     0       7.763   2.177   0.847  0.00  0.00    +0.000 C 
ATOM     50  C58 UNK     0       7.185   0.814  -1.205  0.00  0.00    +0.000 C 
ENDBRANCH  46  47
ENDBRANCH  43  46
ENDBRANCH  35  42
ENDBRANCH  32  35
ENDBRANCH  30  32
ENDBRANCH  29  30
ENDBRANCH  18  29
BRANCH   7  51
ATOM     51  O3  UNK     0      -3.606  -1.416  -0.863  0.00  0.00    +0.000 OA
BRANCH  51  52
ATOM     52  C37 UNK     0      -4.854  -1.960  -1.193  0.00  0.00    +0.000 C 
ATOM     53  O10 UNK     0      -5.374  -1.735  -2.321  0.00  0.00    +0.000 OA
BRANCH  52  54
ATOM     54  C40 UNK     0      -5.566  -2.788  -0.196  0.00  0.00    +0.000 A 
ATOM     55  C42 UNK     0      -4.935  -3.142   1.010  0.00  0.00    +0.000 A 
ATOM     56  C45 UNK     0      -5.617  -3.890   1.974  0.00  0.00    +0.000 A 
ATOM     57  C47 UNK     0      -6.933  -4.299   1.741  0.00  0.00    +0.000 A 
ATOM     58  C46 UNK     0      -7.565  -3.965   0.541  0.00  0.00    +0.000 A 
ATOM     59  C43 UNK     0      -6.888  -3.210  -0.423  0.00  0.00    +0.000 A 
ENDBRANCH  52  54
ENDBRANCH  51  52
ENDBRANCH   7  51
BRANCH   4  60
ATOM     60  O2  UNK     0      -2.073  -0.415   1.312  0.00  0.00    +0.000 OA
BRANCH  60  61
ATOM     61  C36 UNK     0      -2.238  -0.898   2.625  0.00  0.00    +0.000 C 
ATOM     62  C38 UNK     0      -1.637  -2.213   2.999  0.00  0.00    +0.000 C 
ATOM     63  O9  UNK     0      -2.903  -0.266   3.488  0.00  0.00    +0.000 OA
ENDBRANCH  60  61
ENDBRANCH   4  60
TORSDOF 17
