REMARK  Name = C:\Users\Maximilian\Desktop\Conformers\converted_pdb\conformers_pdb\Docetaxel_conf_43.pdb
REMARK  25 active torsions:
REMARK  status: ('A' for Active; 'I' for Inactive)
REMARK    1  A    between atoms: C17_4  and  O2_58
REMARK    2  A    between atoms: C18_5  and  C29_16
REMARK    3  A    between atoms: C20_7  and  O3_47
REMARK    4  A    between atoms: C21_8  and  O4_45
REMARK    5  A    between atoms: C22_9  and  O5_62
REMARK    6  A    between atoms: C24_11  and  C33_20
REMARK    7  A    between atoms: C24_11  and  C34_21
REMARK    8  A    between atoms: C30_17  and  O7_56
REMARK    9  A    between atoms: C31_18  and  O8_23
REMARK   10  A    between atoms: C32_19  and  C35_22
REMARK   11  A    between atoms: O8_23  and  C39_24
REMARK   12  A    between atoms: C39_24  and  C41_26
REMARK   13  A    between atoms: C41_26  and  O12_27
REMARK   14  A    between atoms: C41_26  and  C44_29
REMARK   15  A    between atoms: C44_29  and  C48_30
REMARK   16  A    between atoms: C44_29  and  N15_36
REMARK   17  A    between atoms: C51_37  and  O13_40
REMARK   18  A    between atoms: O13_40  and  C55_41
REMARK   19  A    between atoms: C55_41  and  C56_42
REMARK   20  A    between atoms: C55_41  and  C57_43
REMARK   21  A    between atoms: C55_41  and  C58_44
REMARK   22  A    between atoms: O3_47  and  C37_48
REMARK   23  A    between atoms: C37_48  and  C40_50
REMARK   24  A    between atoms: O2_58  and  C36_59
REMARK   25  A    between atoms: C36_59  and  C38_60
REMARK                            x       y       z     vdW  Elec       q    Type
REMARK                         _______ _______ _______ _____ _____    ______ ____
ROOT
ATOM      1  O1  UNK     0      -5.036   2.930   1.642  0.00  0.00    +0.000 OA
ATOM      2  O6  UNK     0      -0.123   3.121  -1.672  0.00  0.00    +0.000 OA
ATOM      3  C16 UNK     0      -2.679   1.413  -0.390  0.00  0.00    +0.000 C 
ATOM      4  C17 UNK     0      -3.414   1.702   0.992  0.00  0.00    +0.000 C 
ATOM      5  C18 UNK     0      -2.463   2.707  -1.330  0.00  0.00    +0.000 C 
ATOM      6  C19 UNK     0      -3.645   3.128   1.490  0.00  0.00    +0.000 C 
ATOM      7  C20 UNK     0      -3.258   0.053  -1.049  0.00  0.00    +0.000 C 
ATOM      8  C21 UNK     0      -2.269  -1.088  -1.592  0.00  0.00    +0.000 C 
ATOM      9  C22 UNK     0      -2.295   4.011  -0.438  0.00  0.00    +0.000 C 
ATOM     10  C23 UNK     0      -3.452   4.260   0.500  0.00  0.00    +0.000 C 
ATOM     11  C24 UNK     0      -1.680  -0.822  -3.014  0.00  0.00    +0.000 C 
ATOM     12  C25 UNK     0      -4.945   1.664   1.042  0.00  0.00    +0.000 C 
ATOM     13  C26 UNK     0      -1.130   2.604  -2.149  0.00  0.00    +0.000 C 
ATOM     14  C27 UNK     0      -1.117  -1.356  -0.540  0.00  0.00    +0.000 C 
ATOM     15  C28 UNK     0      -0.651   0.299  -2.899  0.00  0.00    +0.000 C 
ATOM     16  C29 UNK     0      -3.685   2.942  -2.262  0.00  0.00    +0.000 C 
ATOM     17  C30 UNK     0      -0.867   1.736  -3.372  0.00  0.00    +0.000 C 
ATOM     18  C31 UNK     0       0.324  -0.870  -0.895  0.00  0.00    +0.000 C 
ATOM     19  C32 UNK     0       0.414   0.082  -2.069  0.00  0.00    +0.000 C 
ATOM     20  C33 UNK     0      -0.942  -2.100  -3.556  0.00  0.00    +0.000 C 
ATOM     21  C34 UNK     0      -2.802  -0.604  -4.070  0.00  0.00    +0.000 C 
ATOM     22  C35 UNK     0       1.775   0.671  -2.377  0.00  0.00    +0.000 C 
ENDROOT
BRANCH   8  23
ATOM     23  O4  UNK     0      -3.032  -2.281  -1.727  0.00  0.00    +0.000 OA
ATOM     24  H80 UNK     0      -3.137  -2.729  -0.839  0.00  0.00    +0.000 HD
ENDBRANCH   8  23
BRANCH  17  25
ATOM     25  O7  UNK     0      -1.830   1.911  -4.370  0.00  0.00    +0.000 OA
ATOM     26  H85 UNK     0      -1.373   1.766  -5.244  0.00  0.00    +0.000 HD
ENDBRANCH  17  25
BRANCH   9  27
ATOM     27  O5  UNK     0      -2.152   5.175  -1.225  0.00  0.00    +0.000 OA
ATOM     28  H81 UNK     0      -1.215   5.213  -1.574  0.00  0.00    +0.000 HD
ENDBRANCH   9  27
BRANCH  18  29
ATOM     29  O8  UNK     0       0.934  -0.236   0.234  0.00  0.00    +0.000 OA
BRANCH  29  30
ATOM     30  C39 UNK     0       1.341  -0.918   1.385  0.00  0.00    +0.000 C 
ATOM     31  O11 UNK     0       0.734  -1.948   1.777  0.00  0.00    +0.000 OA
BRANCH  30  32
ATOM     32  C41 UNK     0       2.541  -0.422   2.136  0.00  0.00    +0.000 C 
BRANCH  32  33
ATOM     33  O12 UNK     0       2.371   0.931   2.481  0.00  0.00    +0.000 OA
ATOM     34  H95 UNK     0       2.269   1.456   1.644  0.00  0.00    +0.000 HD
ENDBRANCH  32  33
BRANCH  32  35
ATOM     35  C44 UNK     0       3.839  -0.622   1.318  0.00  0.00    +0.000 C 
BRANCH  35  36
ATOM     36  C48 UNK     0       4.021  -2.060   0.866  0.00  0.00    +0.000 A 
ATOM     37  C50 UNK     0       4.141  -2.355  -0.499  0.00  0.00    +0.000 A 
ATOM     38  C53 UNK     0       4.333  -3.669  -0.932  0.00  0.00    +0.000 A 
ATOM     39  C54 UNK     0       4.430  -4.704   0.001  0.00  0.00    +0.000 A 
ATOM     40  C52 UNK     0       4.296  -4.428   1.365  0.00  0.00    +0.000 A 
ATOM     41  C49 UNK     0       4.107  -3.111   1.796  0.00  0.00    +0.000 A 
ENDBRANCH  35  36
BRANCH  35  42
ATOM     42  N15 UNK     0       5.000  -0.218   2.108  0.00  0.00    +0.000 N 
ATOM     43  C51 UNK     0       6.277   0.013   1.493  0.00  0.00    +0.000 C 
ATOM     44  O14 UNK     0       6.476  -0.350   0.304  0.00  0.00    +0.000 OA
ATOM     45  H97 UNK     0       4.888   0.070   3.103  0.00  0.00    +0.000 HD
BRANCH  43  46
ATOM     46  O13 UNK     0       7.308   0.589   2.254  0.00  0.00    +0.000 OA
BRANCH  46  47
ATOM     47  C55 UNK     0       8.537   1.113   1.724  0.00  0.00    +0.000 C 
ATOM     48  C56 UNK     0       8.236   2.238   0.720  0.00  0.00    +0.000 C 
ATOM     49  C57 UNK     0       9.325   1.702   2.907  0.00  0.00    +0.000 C 
ATOM     50  C58 UNK     0       9.369   0.004   1.053  0.00  0.00    +0.000 C 
ENDBRANCH  46  47
ENDBRANCH  43  46
ENDBRANCH  35  42
ENDBRANCH  32  35
ENDBRANCH  30  32
ENDBRANCH  29  30
ENDBRANCH  18  29
BRANCH   7  51
ATOM     51  O3  UNK     0      -4.098  -0.612  -0.091  0.00  0.00    +0.000 OA
BRANCH  51  52
ATOM     52  C37 UNK     0      -5.345  -1.197  -0.372  0.00  0.00    +0.000 C 
ATOM     53  O10 UNK     0      -5.850  -1.129  -1.528  0.00  0.00    +0.000 OA
BRANCH  52  54
ATOM     54  C40 UNK     0      -6.076  -1.884   0.714  0.00  0.00    +0.000 A 
ATOM     55  C42 UNK     0      -7.379  -2.365   0.507  0.00  0.00    +0.000 A 
ATOM     56  C45 UNK     0      -8.073  -2.996   1.542  0.00  0.00    +0.000 A 
ATOM     57  C47 UNK     0      -7.472  -3.159   2.795  0.00  0.00    +0.000 A 
ATOM     58  C46 UNK     0      -6.174  -2.694   3.015  0.00  0.00    +0.000 A 
ATOM     59  C43 UNK     0      -5.476  -2.067   1.976  0.00  0.00    +0.000 A 
ENDBRANCH  52  54
ENDBRANCH  51  52
ENDBRANCH   7  51
BRANCH   4  60
ATOM     60  O2  UNK     0      -2.824   0.856   2.006  0.00  0.00    +0.000 OA
BRANCH  60  61
ATOM     61  C36 UNK     0      -3.209   0.705   3.347  0.00  0.00    +0.000 C 
ATOM     62  C38 UNK     0      -2.509  -0.313   4.169  0.00  0.00    +0.000 C 
ATOM     63  O9  UNK     0      -4.097   1.426   3.875  0.00  0.00    +0.000 OA
ENDBRANCH  60  61
ENDBRANCH   4  60
TORSDOF 17
