REMARK  Name = C:\Users\Maximilian\Desktop\Conformers\converted_pdb\conformers_pdb\Docetaxel_conf_15.pdb
REMARK  25 active torsions:
REMARK  status: ('A' for Active; 'I' for Inactive)
REMARK    1  A    between atoms: C17_4  and  O2_58
REMARK    2  A    between atoms: C18_5  and  C29_16
REMARK    3  A    between atoms: C20_7  and  O3_47
REMARK    4  A    between atoms: C21_8  and  O4_45
REMARK    5  A    between atoms: C22_9  and  O5_62
REMARK    6  A    between atoms: C24_11  and  C33_20
REMARK    7  A    between atoms: C24_11  and  C34_21
REMARK    8  A    between atoms: C30_17  and  O7_56
REMARK    9  A    between atoms: C31_18  and  O8_23
REMARK   10  A    between atoms: C32_19  and  C35_22
REMARK   11  A    between atoms: O8_23  and  C39_24
REMARK   12  A    between atoms: C39_24  and  C41_26
REMARK   13  A    between atoms: C41_26  and  O12_27
REMARK   14  A    between atoms: C41_26  and  C44_29
REMARK   15  A    between atoms: C44_29  and  C48_30
REMARK   16  A    between atoms: C44_29  and  N15_36
REMARK   17  A    between atoms: C51_37  and  O13_40
REMARK   18  A    between atoms: O13_40  and  C55_41
REMARK   19  A    between atoms: C55_41  and  C56_42
REMARK   20  A    between atoms: C55_41  and  C57_43
REMARK   21  A    between atoms: C55_41  and  C58_44
REMARK   22  A    between atoms: O3_47  and  C37_48
REMARK   23  A    between atoms: C37_48  and  C40_50
REMARK   24  A    between atoms: O2_58  and  C36_59
REMARK   25  A    between atoms: C36_59  and  C38_60
REMARK                            x       y       z     vdW  Elec       q    Type
REMARK                         _______ _______ _______ _____ _____    ______ ____
ROOT
ATOM      1  O1  UNK     0      -3.767   0.947   2.993  0.00  0.00    +0.000 OA
ATOM      2  O6  UNK     0      -0.810   4.377   0.157  0.00  0.00    +0.000 OA
ATOM      3  C16 UNK     0      -2.546   1.311  -0.102  0.00  0.00    +0.000 C 
ATOM      4  C17 UNK     0      -2.769   0.441   1.194  0.00  0.00    +0.000 C 
ATOM      5  C18 UNK     0      -2.738   2.922   0.046  0.00  0.00    +0.000 C 
ATOM      6  C19 UNK     0      -2.433   1.070   2.535  0.00  0.00    +0.000 C 
ATOM      7  C20 UNK     0      -3.189   0.613  -1.398  0.00  0.00    +0.000 C 
ATOM      8  C21 UNK     0      -2.219   0.146  -2.583  0.00  0.00    +0.000 C 
ATOM      9  C22 UNK     0      -2.869   3.367   1.564  0.00  0.00    +0.000 C 
ATOM     10  C23 UNK     0      -1.975   2.525   2.478  0.00  0.00    +0.000 C 
ATOM     11  C24 UNK     0      -1.643   1.341  -3.430  0.00  0.00    +0.000 C 
ATOM     12  C25 UNK     0      -4.177   0.402   1.755  0.00  0.00    +0.000 C 
ATOM     13  C26 UNK     0      -1.503   3.669  -0.567  0.00  0.00    +0.000 C 
ATOM     14  C27 UNK     0      -1.039  -0.741  -2.066  0.00  0.00    +0.000 C 
ATOM     15  C28 UNK     0      -0.759   2.170  -2.474  0.00  0.00    +0.000 C 
ATOM     16  C29 UNK     0      -4.015   3.481  -0.642  0.00  0.00    +0.000 C 
ATOM     17  C30 UNK     0      -1.068   3.611  -2.030  0.00  0.00    +0.000 C 
ATOM     18  C31 UNK     0       0.303  -0.014  -1.741  0.00  0.00    +0.000 C 
ATOM     19  C32 UNK     0       0.266   1.511  -1.843  0.00  0.00    +0.000 C 
ATOM     20  C33 UNK     0      -0.741   0.838  -4.613  0.00  0.00    +0.000 C 
ATOM     21  C34 UNK     0      -2.784   2.097  -4.179  0.00  0.00    +0.000 C 
ATOM     22  C35 UNK     0       1.419   2.264  -1.205  0.00  0.00    +0.000 C 
ENDROOT
BRANCH   8  23
ATOM     23  O4  UNK     0      -2.989  -0.634  -3.480  0.00  0.00    +0.000 OA
ATOM     24  H80 UNK     0      -3.133  -1.541  -3.095  0.00  0.00    +0.000 HD
ENDBRANCH   8  23
BRANCH  17  25
ATOM     25  O7  UNK     0      -1.990   4.302  -2.828  0.00  0.00    +0.000 OA
ATOM     26  H85 UNK     0      -1.482   4.742  -3.565  0.00  0.00    +0.000 HD
ENDBRANCH  17  25
BRANCH   9  27
ATOM     27  O5  UNK     0      -4.206   3.330   2.019  0.00  0.00    +0.000 OA
ATOM     28  H81 UNK     0      -4.236   3.782   2.905  0.00  0.00    +0.000 HD
ENDBRANCH   9  27
BRANCH  18  29
ATOM     29  O8  UNK     0       0.736  -0.389  -0.434  0.00  0.00    +0.000 OA
BRANCH  29  30
ATOM     30  C39 UNK     0       1.287  -1.647  -0.152  0.00  0.00    +0.000 C 
ATOM     31  O11 UNK     0       1.102  -2.620  -0.931  0.00  0.00    +0.000 OA
BRANCH  30  32
ATOM     32  C41 UNK     0       2.158  -1.815   1.059  0.00  0.00    +0.000 C 
BRANCH  32  33
ATOM     33  O12 UNK     0       1.501  -1.250   2.165  0.00  0.00    +0.000 OA
ATOM     34  H95 UNK     0       1.879  -1.676   2.975  0.00  0.00    +0.000 HD
ENDBRANCH  32  33
BRANCH  32  35
ATOM     35  C44 UNK     0       3.520  -1.111   0.836  0.00  0.00    +0.000 C 
BRANCH  35  36
ATOM     36  C48 UNK     0       4.218  -1.637  -0.405  0.00  0.00    +0.000 A 
ATOM     37  C50 UNK     0       4.766  -2.930  -0.418  0.00  0.00    +0.000 A 
ATOM     38  C53 UNK     0       5.398  -3.420  -1.563  0.00  0.00    +0.000 A 
ATOM     39  C54 UNK     0       5.470  -2.630  -2.713  0.00  0.00    +0.000 A 
ATOM     40  C52 UNK     0       4.917  -1.349  -2.716  0.00  0.00    +0.000 A 
ATOM     41  C49 UNK     0       4.290  -0.853  -1.571  0.00  0.00    +0.000 A 
ENDBRANCH  35  36
BRANCH  35  42
ATOM     42  N15 UNK     0       4.397  -1.283   2.003  0.00  0.00    +0.000 N 
ATOM     43  C51 UNK     0       5.512  -0.412   2.240  0.00  0.00    +0.000 C 
ATOM     44  O14 UNK     0       5.637   0.649   1.568  0.00  0.00    +0.000 OA
ATOM     45  H97 UNK     0       4.335  -2.162   2.568  0.00  0.00    +0.000 HD
BRANCH  43  46
ATOM     46  O13 UNK     0       6.458  -0.764   3.216  0.00  0.00    +0.000 OA
BRANCH  46  47
ATOM     47  C55 UNK     0       7.627  -0.012   3.578  0.00  0.00    +0.000 C 
ATOM     48  C56 UNK     0       8.572   0.128   2.365  0.00  0.00    +0.000 C 
ATOM     49  C57 UNK     0       7.231   1.378   4.122  0.00  0.00    +0.000 C 
ATOM     50  C58 UNK     0       8.346  -0.801   4.687  0.00  0.00    +0.000 C 
ENDBRANCH  46  47
ENDBRANCH  43  46
ENDBRANCH  35  42
ENDBRANCH  32  35
ENDBRANCH  30  32
ENDBRANCH  29  30
ENDBRANCH  18  29
BRANCH   7  51
ATOM     51  O3  UNK     0      -3.974  -0.518  -0.992  0.00  0.00    +0.000 OA
BRANCH  51  52
ATOM     52  C37 UNK     0      -5.269  -0.792  -1.454  0.00  0.00    +0.000 C 
ATOM     53  O10 UNK     0      -5.803  -0.054  -2.327  0.00  0.00    +0.000 OA
BRANCH  52  54
ATOM     54  C40 UNK     0      -5.998  -1.962  -0.924  0.00  0.00    +0.000 A 
ATOM     55  C42 UNK     0      -5.364  -2.854  -0.041  0.00  0.00    +0.000 A 
ATOM     56  C45 UNK     0      -6.062  -3.950   0.473  0.00  0.00    +0.000 A 
ATOM     57  C47 UNK     0      -7.392  -4.170   0.109  0.00  0.00    +0.000 A 
ATOM     58  C46 UNK     0      -8.034  -3.282  -0.757  0.00  0.00    +0.000 A 
ATOM     59  C43 UNK     0      -7.338  -2.190  -1.283  0.00  0.00    +0.000 A 
ENDBRANCH  52  54
ENDBRANCH  51  52
ENDBRANCH   7  51
BRANCH   4  60
ATOM     60  O2  UNK     0      -2.175  -0.863   1.049  0.00  0.00    +0.000 OA
BRANCH  60  61
ATOM     61  C36 UNK     0      -2.194  -1.929   1.965  0.00  0.00    +0.000 C 
ATOM     62  C38 UNK     0      -1.530  -3.211   1.598  0.00  0.00    +0.000 C 
ATOM     63  O9  UNK     0      -2.753  -1.826   3.093  0.00  0.00    +0.000 OA
ENDBRANCH  60  61
ENDBRANCH   4  60
TORSDOF 17
