REMARK  Name = C:\Users\Maximilian\Desktop\Conformers\converted_pdb\conformers_pdb\Docetaxel_conf_22.pdb
REMARK  25 active torsions:
REMARK  status: ('A' for Active; 'I' for Inactive)
REMARK    1  A    between atoms: C17_4  and  O2_58
REMARK    2  A    between atoms: C18_5  and  C29_16
REMARK    3  A    between atoms: C20_7  and  O3_47
REMARK    4  A    between atoms: C21_8  and  O4_45
REMARK    5  A    between atoms: C22_9  and  O5_62
REMARK    6  A    between atoms: C24_11  and  C33_20
REMARK    7  A    between atoms: C24_11  and  C34_21
REMARK    8  A    between atoms: C30_17  and  O7_56
REMARK    9  A    between atoms: C31_18  and  O8_23
REMARK   10  A    between atoms: C32_19  and  C35_22
REMARK   11  A    between atoms: O8_23  and  C39_24
REMARK   12  A    between atoms: C39_24  and  C41_26
REMARK   13  A    between atoms: C41_26  and  O12_27
REMARK   14  A    between atoms: C41_26  and  C44_29
REMARK   15  A    between atoms: C44_29  and  C48_30
REMARK   16  A    between atoms: C44_29  and  N15_36
REMARK   17  A    between atoms: C51_37  and  O13_40
REMARK   18  A    between atoms: O13_40  and  C55_41
REMARK   19  A    between atoms: C55_41  and  C56_42
REMARK   20  A    between atoms: C55_41  and  C57_43
REMARK   21  A    between atoms: C55_41  and  C58_44
REMARK   22  A    between atoms: O3_47  and  C37_48
REMARK   23  A    between atoms: C37_48  and  C40_50
REMARK   24  A    between atoms: O2_58  and  C36_59
REMARK   25  A    between atoms: C36_59  and  C38_60
REMARK                            x       y       z     vdW  Elec       q    Type
REMARK                         _______ _______ _______ _____ _____    ______ ____
ROOT
ATOM      1  O1  UNK     0      -4.444  -2.705   1.532  0.00  0.00    +0.000 OA
ATOM      2  O6  UNK     0      -0.482  -0.146   4.018  0.00  0.00    +0.000 OA
ATOM      3  C16 UNK     0      -2.610   0.096   1.311  0.00  0.00    +0.000 C 
ATOM      4  C17 UNK     0      -3.213  -1.215   0.645  0.00  0.00    +0.000 C 
ATOM      5  C18 UNK     0      -2.620   0.119   2.941  0.00  0.00    +0.000 C 
ATOM      6  C19 UNK     0      -3.053  -2.544   1.364  0.00  0.00    +0.000 C 
ATOM      7  C20 UNK     0      -3.142   1.416   0.563  0.00  0.00    +0.000 C 
ATOM      8  C21 UNK     0      -2.092   2.434  -0.096  0.00  0.00    +0.000 C 
ATOM      9  C22 UNK     0      -2.860  -1.330   3.567  0.00  0.00    +0.000 C 
ATOM     10  C23 UNK     0      -2.296  -2.450   2.687  0.00  0.00    +0.000 C 
ATOM     11  C24 UNK     0      -1.360   3.337   0.961  0.00  0.00    +0.000 C 
ATOM     12  C25 UNK     0      -4.692  -1.479   0.883  0.00  0.00    +0.000 C 
ATOM     13  C26 UNK     0      -1.240   0.641   3.462  0.00  0.00    +0.000 C 
ATOM     14  C27 UNK     0      -1.034   1.680  -0.989  0.00  0.00    +0.000 C 
ATOM     15  C28 UNK     0      -0.469   2.389   1.802  0.00  0.00    +0.000 C 
ATOM     16  C29 UNK     0      -3.743   0.995   3.567  0.00  0.00    +0.000 C 
ATOM     17  C30 UNK     0      -0.694   2.060   3.288  0.00  0.00    +0.000 C 
ATOM     18  C31 UNK     0       0.387   1.455  -0.384  0.00  0.00    +0.000 C 
ATOM     19  C32 UNK     0       0.458   1.640   1.124  0.00  0.00    +0.000 C 
ATOM     20  C33 UNK     0      -0.452   4.410   0.269  0.00  0.00    +0.000 C 
ATOM     21  C34 UNK     0      -2.368   4.238   1.743  0.00  0.00    +0.000 C 
ATOM     22  C35 UNK     0       1.657   1.033   1.828  0.00  0.00    +0.000 C 
ENDROOT
BRANCH   8  23
ATOM     23  O4  UNK     0      -2.821   3.321  -0.926  0.00  0.00    +0.000 OA
ATOM     24  H80 UNK     0      -3.084   2.849  -1.758  0.00  0.00    +0.000 HD
ENDBRANCH   8  23
BRANCH  17  25
ATOM     25  O7  UNK     0      -1.480   2.984   3.983  0.00  0.00    +0.000 OA
ATOM     26  H85 UNK     0      -0.900   3.769   4.179  0.00  0.00    +0.000 HD
ENDBRANCH  17  25
BRANCH   9  27
ATOM     27  O5  UNK     0      -4.222  -1.581   3.840  0.00  0.00    +0.000 OA
ATOM     28  H81 UNK     0      -4.266  -2.370   4.442  0.00  0.00    +0.000 HD
ENDBRANCH   9  27
BRANCH  18  29
ATOM     29  O8  UNK     0       0.877   0.154  -0.727  0.00  0.00    +0.000 OA
BRANCH  29  30
ATOM     30  C39 UNK     0       1.345  -0.179  -2.003  0.00  0.00    +0.000 C 
ATOM     31  O11 UNK     0       1.041   0.530  -3.003  0.00  0.00    +0.000 OA
BRANCH  30  32
ATOM     32  C41 UNK     0       2.329  -1.307  -2.163  0.00  0.00    +0.000 C 
BRANCH  32  33
ATOM     33  O12 UNK     0       1.800  -2.491  -1.620  0.00  0.00    +0.000 OA
ATOM     34  H95 UNK     0       1.774  -2.387  -0.633  0.00  0.00    +0.000 HD
ENDBRANCH  32  33
BRANCH  32  35
ATOM     35  C44 UNK     0       3.679  -0.941  -1.500  0.00  0.00    +0.000 C 
BRANCH  35  36
ATOM     36  C48 UNK     0       4.384   0.169  -2.255  0.00  0.00    +0.000 A 
ATOM     37  C50 UNK     0       4.383   1.480  -1.744  0.00  0.00    +0.000 A 
ATOM     38  C53 UNK     0       5.022   2.508  -2.442  0.00  0.00    +0.000 A 
ATOM     39  C54 UNK     0       5.671   2.239  -3.649  0.00  0.00    +0.000 A 
ATOM     40  C52 UNK     0       5.669   0.943  -4.170  0.00  0.00    +0.000 A 
ATOM     41  C49 UNK     0       5.022  -0.089  -3.481  0.00  0.00    +0.000 A 
ENDBRANCH  35  36
BRANCH  35  42
ATOM     42  N15 UNK     0       4.554  -2.110  -1.399  0.00  0.00    +0.000 N 
ATOM     43  C51 UNK     0       5.585  -2.195  -0.410  0.00  0.00    +0.000 C 
ATOM     44  O14 UNK     0       5.812  -1.213   0.348  0.00  0.00    +0.000 OA
ATOM     45  H97 UNK     0       4.445  -2.907  -2.067  0.00  0.00    +0.000 HD
BRANCH  43  46
ATOM     46  O13 UNK     0       6.319  -3.383  -0.288  0.00  0.00    +0.000 OA
BRANCH  46  47
ATOM     47  C55 UNK     0       7.362  -3.639   0.666  0.00  0.00    +0.000 C 
ATOM     48  C56 UNK     0       6.826  -3.535   2.108  0.00  0.00    +0.000 C 
ATOM     49  C57 UNK     0       7.854  -5.074   0.429  0.00  0.00    +0.000 C 
ATOM     50  C58 UNK     0       8.537  -2.664   0.457  0.00  0.00    +0.000 C 
ENDBRANCH  46  47
ENDBRANCH  43  46
ENDBRANCH  35  42
ENDBRANCH  32  35
ENDBRANCH  30  32
ENDBRANCH  29  30
ENDBRANCH  18  29
BRANCH   7  51
ATOM     51  O3  UNK     0      -4.086   1.044  -0.453  0.00  0.00    +0.000 OA
BRANCH  51  52
ATOM     52  C37 UNK     0      -5.368   1.602  -0.600  0.00  0.00    +0.000 C 
ATOM     53  O10 UNK     0      -5.784   2.476   0.211  0.00  0.00    +0.000 OA
BRANCH  52  54
ATOM     54  C40 UNK     0      -6.231   1.157  -1.713  0.00  0.00    +0.000 A 
ATOM     55  C42 UNK     0      -7.557   1.619  -1.827  0.00  0.00    +0.000 A 
ATOM     56  C45 UNK     0      -8.364   1.211  -2.892  0.00  0.00    +0.000 A 
ATOM     57  C47 UNK     0      -7.861   0.328  -3.851  0.00  0.00    +0.000 A 
ATOM     58  C46 UNK     0      -6.548  -0.137  -3.752  0.00  0.00    +0.000 A 
ATOM     59  C43 UNK     0      -5.734   0.272  -2.690  0.00  0.00    +0.000 A 
ENDBRANCH  52  54
ENDBRANCH  51  52
ENDBRANCH   7  51
BRANCH   4  60
ATOM     60  O2  UNK     0      -2.915  -1.338  -0.754  0.00  0.00    +0.000 OA
BRANCH  60  61
ATOM     61  C36 UNK     0      -1.726  -1.863  -1.270  0.00  0.00    +0.000 C 
ATOM     62  C38 UNK     0      -1.572  -2.004  -2.748  0.00  0.00    +0.000 C 
ATOM     63  O9  UNK     0      -0.785  -2.196  -0.503  0.00  0.00    +0.000 OA
ENDBRANCH  60  61
ENDBRANCH   4  60
TORSDOF 17
