REMARK  Name = C:\Users\Maximilian\Desktop\Conformers\converted_pdb\conformers_pdb\Docetaxel_conf_77.pdb
REMARK  25 active torsions:
REMARK  status: ('A' for Active; 'I' for Inactive)
REMARK    1  A    between atoms: C17_4  and  O2_58
REMARK    2  A    between atoms: C18_5  and  C29_16
REMARK    3  A    between atoms: C20_7  and  O3_47
REMARK    4  A    between atoms: C21_8  and  O4_45
REMARK    5  A    between atoms: C22_9  and  O5_62
REMARK    6  A    between atoms: C24_11  and  C33_20
REMARK    7  A    between atoms: C24_11  and  C34_21
REMARK    8  A    between atoms: C30_17  and  O7_56
REMARK    9  A    between atoms: C31_18  and  O8_23
REMARK   10  A    between atoms: C32_19  and  C35_22
REMARK   11  A    between atoms: O8_23  and  C39_24
REMARK   12  A    between atoms: C39_24  and  C41_26
REMARK   13  A    between atoms: C41_26  and  O12_27
REMARK   14  A    between atoms: C41_26  and  C44_29
REMARK   15  A    between atoms: C44_29  and  C48_30
REMARK   16  A    between atoms: C44_29  and  N15_36
REMARK   17  A    between atoms: C51_37  and  O13_40
REMARK   18  A    between atoms: O13_40  and  C55_41
REMARK   19  A    between atoms: C55_41  and  C56_42
REMARK   20  A    between atoms: C55_41  and  C57_43
REMARK   21  A    between atoms: C55_41  and  C58_44
REMARK   22  A    between atoms: O3_47  and  C37_48
REMARK   23  A    between atoms: C37_48  and  C40_50
REMARK   24  A    between atoms: O2_58  and  C36_59
REMARK   25  A    between atoms: C36_59  and  C38_60
REMARK                            x       y       z     vdW  Elec       q    Type
REMARK                         _______ _______ _______ _____ _____    ______ ____
ROOT
ATOM      1  O1  UNK     0      -5.193   1.269  -2.741  0.00  0.00    +0.000 OA
ATOM      2  O6  UNK     0      -0.884  -2.908  -2.776  0.00  0.00    +0.000 OA
ATOM      3  C16 UNK     0      -2.880  -0.638  -0.990  0.00  0.00    +0.000 C 
ATOM      4  C17 UNK     0      -3.483   0.735  -1.550  0.00  0.00    +0.000 C 
ATOM      5  C18 UNK     0      -2.940  -1.870  -2.037  0.00  0.00    +0.000 C 
ATOM      6  C19 UNK     0      -3.847   0.941  -3.028  0.00  0.00    +0.000 C 
ATOM      7  C20 UNK     0      -3.378  -0.847   0.539  0.00  0.00    +0.000 C 
ATOM      8  C21 UNK     0      -2.331  -1.217   1.694  0.00  0.00    +0.000 C 
ATOM      9  C22 UNK     0      -2.788  -1.284  -3.505  0.00  0.00    +0.000 C 
ATOM     10  C23 UNK     0      -3.851  -0.287  -3.919  0.00  0.00    +0.000 C 
ATOM     11  C24 UNK     0      -1.917  -2.726   1.714  0.00  0.00    +0.000 C 
ATOM     12  C25 UNK     0      -4.999   0.961  -1.383  0.00  0.00    +0.000 C 
ATOM     13  C26 UNK     0      -1.735  -2.872  -1.893  0.00  0.00    +0.000 C 
ATOM     14  C27 UNK     0      -1.064  -0.278   1.612  0.00  0.00    +0.000 C 
ATOM     15  C28 UNK     0      -1.047  -2.965   0.469  0.00  0.00    +0.000 C 
ATOM     16  C29 UNK     0      -4.276  -2.648  -1.953  0.00  0.00    +0.000 C 
ATOM     17  C30 UNK     0      -1.463  -3.806  -0.733  0.00  0.00    +0.000 C 
ATOM     18  C31 UNK     0       0.258  -0.899   1.085  0.00  0.00    +0.000 C 
ATOM     19  C32 UNK     0       0.085  -2.202   0.332  0.00  0.00    +0.000 C 
ATOM     20  C33 UNK     0      -1.053  -3.059   2.978  0.00  0.00    +0.000 C 
ATOM     21  C34 UNK     0      -3.167  -3.656   1.883  0.00  0.00    +0.000 C 
ATOM     22  C35 UNK     0       1.302  -2.722  -0.428  0.00  0.00    +0.000 C 
ENDROOT
BRANCH   8  23
ATOM     23  O4  UNK     0      -2.966  -0.987   2.943  0.00  0.00    +0.000 OA
ATOM     24  H80 UNK     0      -2.968  -0.016   3.154  0.00  0.00    +0.000 HD
ENDBRANCH   8  23
BRANCH  17  25
ATOM     25  O7  UNK     0      -2.555  -4.659  -0.539  0.00  0.00    +0.000 OA
ATOM     26  H85 UNK     0      -2.209  -5.501  -0.139  0.00  0.00    +0.000 HD
ENDBRANCH  17  25
BRANCH   9  27
ATOM     27  O5  UNK     0      -2.703  -2.295  -4.492  0.00  0.00    +0.000 OA
ATOM     28  H81 UNK     0      -3.601  -2.707  -4.615  0.00  0.00    +0.000 HD
ENDBRANCH   9  27
BRANCH  18  29
ATOM     29  O8  UNK     0       0.921   0.043   0.234  0.00  0.00    +0.000 OA
BRANCH  29  30
ATOM     30  C39 UNK     0       1.626   1.145   0.721  0.00  0.00    +0.000 C 
ATOM     31  O11 UNK     0       1.517   1.495   1.936  0.00  0.00    +0.000 OA
BRANCH  30  32
ATOM     32  C41 UNK     0       2.656   1.806  -0.150  0.00  0.00    +0.000 C 
BRANCH  32  33
ATOM     33  O12 UNK     0       2.121   1.991  -1.429  0.00  0.00    +0.000 OA
ATOM     34  H95 UNK     0       1.481   2.748  -1.364  0.00  0.00    +0.000 HD
ENDBRANCH  32  33
BRANCH  32  35
ATOM     35  C44 UNK     0       3.915   0.920  -0.244  0.00  0.00    +0.000 C 
BRANCH  35  36
ATOM     36  C48 UNK     0       4.524   0.680   1.124  0.00  0.00    +0.000 A 
ATOM     37  C50 UNK     0       4.463  -0.593   1.717  0.00  0.00    +0.000 A 
ATOM     38  C53 UNK     0       5.033  -0.808   2.979  0.00  0.00    +0.000 A 
ATOM     39  C54 UNK     0       5.638   0.245   3.669  0.00  0.00    +0.000 A 
ATOM     40  C52 UNK     0       5.687   1.518   3.094  0.00  0.00    +0.000 A 
ATOM     41  C49 UNK     0       5.137   1.739   1.827  0.00  0.00    +0.000 A 
ENDBRANCH  35  36
BRANCH  35  42
ATOM     42  N15 UNK     0       4.925   1.523  -1.122  0.00  0.00    +0.000 N 
ATOM     43  C51 UNK     0       6.062   0.776  -1.572  0.00  0.00    +0.000 C 
ATOM     44  O14 UNK     0       6.100  -0.479  -1.397  0.00  0.00    +0.000 OA
ATOM     45  H97 UNK     0       4.883   2.548  -1.342  0.00  0.00    +0.000 HD
BRANCH  43  46
ATOM     46  O13 UNK     0       7.110   1.450  -2.213  0.00  0.00    +0.000 OA
BRANCH  46  47
ATOM     47  C55 UNK     0       8.311   0.837  -2.714  0.00  0.00    +0.000 C 
ATOM     48  C56 UNK     0       7.982  -0.183  -3.828  0.00  0.00    +0.000 C 
ATOM     49  C57 UNK     0       9.179   1.957  -3.310  0.00  0.00    +0.000 C 
ATOM     50  C58 UNK     0       9.095   0.164  -1.567  0.00  0.00    +0.000 C 
ENDBRANCH  46  47
ENDBRANCH  43  46
ENDBRANCH  35  42
ENDBRANCH  32  35
ENDBRANCH  30  32
ENDBRANCH  29  30
ENDBRANCH  18  29
BRANCH   7  51
ATOM     51  O3  UNK     0      -3.997   0.363   1.003  0.00  0.00    +0.000 OA
BRANCH  51  52
ATOM     52  C37 UNK     0      -5.197   0.424   1.733  0.00  0.00    +0.000 C 
ATOM     53  O10 UNK     0      -5.905  -0.606   1.884  0.00  0.00    +0.000 OA
BRANCH  52  54
ATOM     54  C40 UNK     0      -5.619   1.707   2.325  0.00  0.00    +0.000 A 
ATOM     55  C42 UNK     0      -6.884   1.831   2.921  0.00  0.00    +0.000 A 
ATOM     56  C45 UNK     0      -7.281   3.039   3.496  0.00  0.00    +0.000 A 
ATOM     57  C47 UNK     0      -6.414   4.135   3.487  0.00  0.00    +0.000 A 
ATOM     58  C46 UNK     0      -5.149   4.021   2.904  0.00  0.00    +0.000 A 
ATOM     59  C43 UNK     0      -4.753   2.813   2.324  0.00  0.00    +0.000 A 
ENDBRANCH  52  54
ENDBRANCH  51  52
ENDBRANCH   7  51
BRANCH   4  60
ATOM     60  O2  UNK     0      -2.697   1.828  -1.021  0.00  0.00    +0.000 OA
BRANCH  60  61
ATOM     61  C36 UNK     0      -2.958   3.206  -1.107  0.00  0.00    +0.000 C 
ATOM     62  C38 UNK     0      -2.077   4.152  -0.377  0.00  0.00    +0.000 C 
ATOM     63  O9  UNK     0      -3.915   3.656  -1.791  0.00  0.00    +0.000 OA
ENDBRANCH  60  61
ENDBRANCH   4  60
TORSDOF 17
