REMARK  Name = C:\Users\Maximilian\Desktop\Conformers\converted_pdb\conformers_pdb\Docetaxel_conf_29.pdb
REMARK  25 active torsions:
REMARK  status: ('A' for Active; 'I' for Inactive)
REMARK    1  A    between atoms: C17_4  and  O2_58
REMARK    2  A    between atoms: C18_5  and  C29_16
REMARK    3  A    between atoms: C20_7  and  O3_47
REMARK    4  A    between atoms: C21_8  and  O4_45
REMARK    5  A    between atoms: C22_9  and  O5_62
REMARK    6  A    between atoms: C24_11  and  C33_20
REMARK    7  A    between atoms: C24_11  and  C34_21
REMARK    8  A    between atoms: C30_17  and  O7_56
REMARK    9  A    between atoms: C31_18  and  O8_23
REMARK   10  A    between atoms: C32_19  and  C35_22
REMARK   11  A    between atoms: O8_23  and  C39_24
REMARK   12  A    between atoms: C39_24  and  C41_26
REMARK   13  A    between atoms: C41_26  and  O12_27
REMARK   14  A    between atoms: C41_26  and  C44_29
REMARK   15  A    between atoms: C44_29  and  C48_30
REMARK   16  A    between atoms: C44_29  and  N15_36
REMARK   17  A    between atoms: C51_37  and  O13_40
REMARK   18  A    between atoms: O13_40  and  C55_41
REMARK   19  A    between atoms: C55_41  and  C56_42
REMARK   20  A    between atoms: C55_41  and  C57_43
REMARK   21  A    between atoms: C55_41  and  C58_44
REMARK   22  A    between atoms: O3_47  and  C37_48
REMARK   23  A    between atoms: C37_48  and  C40_50
REMARK   24  A    between atoms: O2_58  and  C36_59
REMARK   25  A    between atoms: C36_59  and  C38_60
REMARK                            x       y       z     vdW  Elec       q    Type
REMARK                         _______ _______ _______ _____ _____    ______ ____
ROOT
ATOM      1  O1  UNK     0      -5.721  -3.386  -0.747  0.00  0.00    +0.000 OA
ATOM      2  O6  UNK     0      -0.276  -2.444  -0.667  0.00  0.00    +0.000 OA
ATOM      3  C16 UNK     0      -3.210  -1.417  -0.116  0.00  0.00    +0.000 C 
ATOM      4  C17 UNK     0      -4.741  -1.486  -0.602  0.00  0.00    +0.000 C 
ATOM      5  C18 UNK     0      -2.517  -2.890  -0.019  0.00  0.00    +0.000 C 
ATOM      6  C19 UNK     0      -5.018  -2.559  -1.646  0.00  0.00    +0.000 C 
ATOM      7  C20 UNK     0      -3.037  -0.254   1.007  0.00  0.00    +0.000 C 
ATOM      8  C21 UNK     0      -1.629   0.265   1.612  0.00  0.00    +0.000 C 
ATOM      9  C22 UNK     0      -2.631  -3.610  -1.439  0.00  0.00    +0.000 C 
ATOM     10  C23 UNK     0      -3.824  -3.200  -2.349  0.00  0.00    +0.000 C 
ATOM     11  C24 UNK     0      -0.939  -0.628   2.728  0.00  0.00    +0.000 C 
ATOM     12  C25 UNK     0      -5.745  -2.338   0.208  0.00  0.00    +0.000 C 
ATOM     13  C26 UNK     0      -0.994  -2.772   0.271  0.00  0.00    +0.000 C 
ATOM     14  C27 UNK     0      -0.658   0.564   0.401  0.00  0.00    +0.000 C 
ATOM     15  C28 UNK     0       0.112  -1.541   2.070  0.00  0.00    +0.000 C 
ATOM     16  C29 UNK     0      -3.188  -3.882   0.986  0.00  0.00    +0.000 C 
ATOM     17  C30 UNK     0      -0.249  -2.948   1.604  0.00  0.00    +0.000 C 
ATOM     18  C31 UNK     0       0.846   0.434   0.743  0.00  0.00    +0.000 C 
ATOM     19  C32 UNK     0       1.126  -0.915   1.403  0.00  0.00    +0.000 C 
ATOM     20  C33 UNK     0      -0.159   0.229   3.794  0.00  0.00    +0.000 C 
ATOM     21  C34 UNK     0      -1.981  -1.350   3.618  0.00  0.00    +0.000 C 
ATOM     22  C35 UNK     0       2.420  -1.628   1.080  0.00  0.00    +0.000 C 
ENDROOT
BRANCH   8  23
ATOM     23  O4  UNK     0      -1.911   1.488   2.274  0.00  0.00    +0.000 OA
ATOM     24  H80 UNK     0      -1.255   2.197   2.041  0.00  0.00    +0.000 HD
ENDBRANCH   8  23
BRANCH  17  25
ATOM     25  O7  UNK     0      -0.956  -3.668   2.588  0.00  0.00    +0.000 OA
ATOM     26  H85 UNK     0      -0.598  -4.600   2.619  0.00  0.00    +0.000 HD
ENDBRANCH  17  25
BRANCH   9  27
ATOM     27  O5  UNK     0      -2.511  -5.012  -1.324  0.00  0.00    +0.000 OA
ATOM     28  H81 UNK     0      -3.427  -5.426  -1.303  0.00  0.00    +0.000 HD
ENDBRANCH   9  27
BRANCH  18  29
ATOM     29  O8  UNK     0       1.611   0.538  -0.460  0.00  0.00    +0.000 OA
BRANCH  29  30
ATOM     30  C39 UNK     0       1.880   1.745  -1.118  0.00  0.00    +0.000 C 
ATOM     31  O11 UNK     0       1.457   2.831  -0.650  0.00  0.00    +0.000 OA
BRANCH  30  32
ATOM     32  C41 UNK     0       2.713   1.741  -2.370  0.00  0.00    +0.000 C 
BRANCH  32  33
ATOM     33  O12 UNK     0       2.389   0.612  -3.140  0.00  0.00    +0.000 OA
ATOM     34  H95 UNK     0       1.487   0.777  -3.537  0.00  0.00    +0.000 HD
ENDBRANCH  32  33
BRANCH  32  35
ATOM     35  C44 UNK     0       4.227   1.753  -2.037  0.00  0.00    +0.000 C 
BRANCH  35  36
ATOM     36  C48 UNK     0       5.061   1.777  -3.311  0.00  0.00    +0.000 A 
ATOM     37  C50 UNK     0       5.543   2.998  -3.821  0.00  0.00    +0.000 A 
ATOM     38  C53 UNK     0       6.228   3.048  -5.042  0.00  0.00    +0.000 A 
ATOM     39  C54 UNK     0       6.451   1.869  -5.765  0.00  0.00    +0.000 A 
ATOM     40  C52 UNK     0       5.986   0.645  -5.268  0.00  0.00    +0.000 A 
ATOM     41  C49 UNK     0       5.278   0.603  -4.062  0.00  0.00    +0.000 A 
ENDBRANCH  35  36
BRANCH  35  42
ATOM     42  N15 UNK     0       4.597   0.602  -1.195  0.00  0.00    +0.000 N 
ATOM     43  C51 UNK     0       5.633   0.662  -0.205  0.00  0.00    +0.000 C 
ATOM     44  O14 UNK     0       6.308   1.714  -0.046  0.00  0.00    +0.000 OA
ATOM     45  H97 UNK     0       4.118  -0.316  -1.348  0.00  0.00    +0.000 HD
BRANCH  43  46
ATOM     46  O13 UNK     0       5.898  -0.482   0.565  0.00  0.00    +0.000 OA
BRANCH  46  47
ATOM     47  C55 UNK     0       6.792  -0.568   1.687  0.00  0.00    +0.000 C 
ATOM     48  C56 UNK     0       8.249  -0.366   1.227  0.00  0.00    +0.000 C 
ATOM     49  C57 UNK     0       6.407   0.468   2.762  0.00  0.00    +0.000 C 
ATOM     50  C58 UNK     0       6.646  -1.980   2.289  0.00  0.00    +0.000 C 
ENDBRANCH  46  47
ENDBRANCH  43  46
ENDBRANCH  35  42
ENDBRANCH  32  35
ENDBRANCH  30  32
ENDBRANCH  29  30
ENDBRANCH  18  29
BRANCH   7  51
ATOM     51  O3  UNK     0      -3.593   0.930   0.407  0.00  0.00    +0.000 OA
BRANCH  51  52
ATOM     52  C37 UNK     0      -4.245   1.987   1.074  0.00  0.00    +0.000 C 
ATOM     53  O10 UNK     0      -4.625   1.846   2.273  0.00  0.00    +0.000 OA
BRANCH  52  54
ATOM     54  C40 UNK     0      -4.481   3.259   0.351  0.00  0.00    +0.000 A 
ATOM     55  C42 UNK     0      -5.108   4.339   0.986  0.00  0.00    +0.000 A 
ATOM     56  C45 UNK     0      -5.341   5.533   0.284  0.00  0.00    +0.000 A 
ATOM     57  C47 UNK     0      -4.948   5.657  -1.058  0.00  0.00    +0.000 A 
ATOM     58  C46 UNK     0      -4.321   4.589  -1.701  0.00  0.00    +0.000 A 
ATOM     59  C43 UNK     0      -4.073   3.399  -0.998  0.00  0.00    +0.000 A 
ENDBRANCH  52  54
ENDBRANCH  51  52
ENDBRANCH   7  51
BRANCH   4  60
ATOM     60  O2  UNK     0      -5.272  -0.249  -1.124  0.00  0.00    +0.000 OA
BRANCH  60  61
ATOM     61  C36 UNK     0      -6.316   0.515  -0.559  0.00  0.00    +0.000 C 
ATOM     62  C38 UNK     0      -7.022   1.532  -1.399  0.00  0.00    +0.000 C 
ATOM     63  O9  UNK     0      -6.669   0.362   0.649  0.00  0.00    +0.000 OA
ENDBRANCH  60  61
ENDBRANCH   4  60
TORSDOF 17
