REMARK  Name = C:\Users\Maximilian\Desktop\Conformers\converted_pdb\conformers_pdb\Docetaxel_conf_68.pdb
REMARK  25 active torsions:
REMARK  status: ('A' for Active; 'I' for Inactive)
REMARK    1  A    between atoms: C17_4  and  O2_58
REMARK    2  A    between atoms: C18_5  and  C29_16
REMARK    3  A    between atoms: C20_7  and  O3_47
REMARK    4  A    between atoms: C21_8  and  O4_45
REMARK    5  A    between atoms: C22_9  and  O5_62
REMARK    6  A    between atoms: C24_11  and  C33_20
REMARK    7  A    between atoms: C24_11  and  C34_21
REMARK    8  A    between atoms: C30_17  and  O7_56
REMARK    9  A    between atoms: C31_18  and  O8_23
REMARK   10  A    between atoms: C32_19  and  C35_22
REMARK   11  A    between atoms: O8_23  and  C39_24
REMARK   12  A    between atoms: C39_24  and  C41_26
REMARK   13  A    between atoms: C41_26  and  O12_27
REMARK   14  A    between atoms: C41_26  and  C44_29
REMARK   15  A    between atoms: C44_29  and  C48_30
REMARK   16  A    between atoms: C44_29  and  N15_36
REMARK   17  A    between atoms: C51_37  and  O13_40
REMARK   18  A    between atoms: O13_40  and  C55_41
REMARK   19  A    between atoms: C55_41  and  C56_42
REMARK   20  A    between atoms: C55_41  and  C57_43
REMARK   21  A    between atoms: C55_41  and  C58_44
REMARK   22  A    between atoms: O3_47  and  C37_48
REMARK   23  A    between atoms: C37_48  and  C40_50
REMARK   24  A    between atoms: O2_58  and  C36_59
REMARK   25  A    between atoms: C36_59  and  C38_60
REMARK                            x       y       z     vdW  Elec       q    Type
REMARK                         _______ _______ _______ _____ _____    ______ ____
ROOT
ATOM      1  O1  UNK     0      -6.708  -0.108   0.475  0.00  0.00    +0.000 OA
ATOM      2  O6  UNK     0      -2.193   0.543   4.114  0.00  0.00    +0.000 OA
ATOM      3  C16 UNK     0      -3.510   0.566   1.190  0.00  0.00    +0.000 C 
ATOM      4  C17 UNK     0      -4.589  -0.291   0.403  0.00  0.00    +0.000 C 
ATOM      5  C18 UNK     0      -4.019   0.999   2.663  0.00  0.00    +0.000 C 
ATOM      6  C19 UNK     0      -5.774  -0.937   1.133  0.00  0.00    +0.000 C 
ATOM      7  C20 UNK     0      -2.518   1.274   0.091  0.00  0.00    +0.000 C 
ATOM      8  C21 UNK     0      -1.727   2.701  -0.023  0.00  0.00    +0.000 C 
ATOM      9  C22 UNK     0      -4.601  -0.316   3.327  0.00  0.00    +0.000 C 
ATOM     10  C23 UNK     0      -5.888  -0.806   2.658  0.00  0.00    +0.000 C 
ATOM     11  C24 UNK     0      -1.951   3.728   1.130  0.00  0.00    +0.000 C 
ATOM     12  C25 UNK     0      -5.689   0.533  -0.256  0.00  0.00    +0.000 C 
ATOM     13  C26 UNK     0      -2.835   1.424   3.552  0.00  0.00    +0.000 C 
ATOM     14  C27 UNK     0      -0.176   2.527  -0.189  0.00  0.00    +0.000 C 
ATOM     15  C28 UNK     0      -1.424   3.066   2.424  0.00  0.00    +0.000 C 
ATOM     16  C29 UNK     0      -5.193   2.029   2.762  0.00  0.00    +0.000 C 
ATOM     17  C30 UNK     0      -2.273   2.827   3.659  0.00  0.00    +0.000 C 
ATOM     18  C31 UNK     0       0.630   2.335   1.110  0.00  0.00    +0.000 C 
ATOM     19  C32 UNK     0      -0.158   2.518   2.398  0.00  0.00    +0.000 C 
ATOM     20  C33 UNK     0      -1.130   5.050   0.960  0.00  0.00    +0.000 C 
ATOM     21  C34 UNK     0      -3.424   4.207   1.031  0.00  0.00    +0.000 C 
ATOM     22  C35 UNK     0       0.594   2.160   3.667  0.00  0.00    +0.000 C 
ENDROOT
BRANCH   8  23
ATOM     23  O4  UNK     0      -2.167   3.337  -1.212  0.00  0.00    +0.000 OA
ATOM     24  H80 UNK     0      -1.888   2.796  -1.995  0.00  0.00    +0.000 HD
ENDBRANCH   8  23
BRANCH  17  25
ATOM     25  O7  UNK     0      -3.241   3.811   3.872  0.00  0.00    +0.000 OA
ATOM     26  H85 UNK     0      -3.635   3.646   4.772  0.00  0.00    +0.000 HD
ENDBRANCH  17  25
BRANCH   9  27
ATOM     27  O5  UNK     0      -4.862  -0.111   4.697  0.00  0.00    +0.000 OA
ATOM     28  H81 UNK     0      -4.958  -1.004   5.118  0.00  0.00    +0.000 HD
ENDBRANCH   9  27
BRANCH  18  29
ATOM     29  O8  UNK     0       1.241   1.043   1.112  0.00  0.00    +0.000 OA
BRANCH  29  30
ATOM     30  C39 UNK     0       2.422   0.765   0.403  0.00  0.00    +0.000 C 
ATOM     31  O11 UNK     0       2.826   1.550  -0.500  0.00  0.00    +0.000 OA
BRANCH  30  32
ATOM     32  C41 UNK     0       3.212  -0.471   0.735  0.00  0.00    +0.000 C 
BRANCH  32  33
ATOM     33  O12 UNK     0       4.545  -0.112   1.003  0.00  0.00    +0.000 OA
ATOM     34  H95 UNK     0       4.545   0.335   1.893  0.00  0.00    +0.000 HD
ENDBRANCH  32  33
BRANCH  32  35
ATOM     35  C44 UNK     0       3.133  -1.508  -0.419  0.00  0.00    +0.000 C 
BRANCH  35  36
ATOM     36  C48 UNK     0       3.699  -2.895  -0.116  0.00  0.00    +0.000 A 
ATOM     37  C50 UNK     0       4.415  -3.200   1.062  0.00  0.00    +0.000 A 
ATOM     38  C53 UNK     0       4.900  -4.493   1.284  0.00  0.00    +0.000 A 
ATOM     39  C54 UNK     0       4.677  -5.499   0.343  0.00  0.00    +0.000 A 
ATOM     40  C52 UNK     0       3.972  -5.216  -0.829  0.00  0.00    +0.000 A 
ATOM     41  C49 UNK     0       3.499  -3.919  -1.061  0.00  0.00    +0.000 A 
ENDBRANCH  35  36
BRANCH  35  42
ATOM     42  N15 UNK     0       3.705  -0.975  -1.663  0.00  0.00    +0.000 N 
ATOM     43  C51 UNK     0       5.112  -0.842  -1.923  0.00  0.00    +0.000 C 
ATOM     44  O14 UNK     0       5.964  -1.257  -1.090  0.00  0.00    +0.000 OA
ATOM     45  H97 UNK     0       3.042  -0.699  -2.423  0.00  0.00    +0.000 HD
BRANCH  43  46
ATOM     46  O13 UNK     0       5.511  -0.233  -3.121  0.00  0.00    +0.000 OA
BRANCH  46  47
ATOM     47  C55 UNK     0       6.864  -0.047  -3.568  0.00  0.00    +0.000 C 
ATOM     48  C56 UNK     0       7.636   0.861  -2.592  0.00  0.00    +0.000 C 
ATOM     49  C57 UNK     0       7.573  -1.407  -3.725  0.00  0.00    +0.000 C 
ATOM     50  C58 UNK     0       6.799   0.638  -4.943  0.00  0.00    +0.000 C 
ENDBRANCH  46  47
ENDBRANCH  43  46
ENDBRANCH  35  42
ENDBRANCH  32  35
ENDBRANCH  30  32
ENDBRANCH  29  30
ENDBRANCH  18  29
BRANCH   7  51
ATOM     51  O3  UNK     0      -1.601   0.234  -0.295  0.00  0.00    +0.000 OA
BRANCH  51  52
ATOM     52  C37 UNK     0      -1.446  -0.292  -1.588  0.00  0.00    +0.000 C 
ATOM     53  O10 UNK     0      -1.830   0.360  -2.597  0.00  0.00    +0.000 OA
BRANCH  52  54
ATOM     54  C40 UNK     0      -0.861  -1.636  -1.749  0.00  0.00    +0.000 A 
ATOM     55  C42 UNK     0      -0.615  -2.435  -0.618  0.00  0.00    +0.000 A 
ATOM     56  C45 UNK     0      -0.093  -3.721  -0.762  0.00  0.00    +0.000 A 
ATOM     57  C47 UNK     0       0.177  -4.226  -2.034  0.00  0.00    +0.000 A 
ATOM     58  C46 UNK     0      -0.061  -3.440  -3.166  0.00  0.00    +0.000 A 
ATOM     59  C43 UNK     0      -0.580  -2.149  -3.027  0.00  0.00    +0.000 A 
ENDBRANCH  52  54
ENDBRANCH  51  52
ENDBRANCH   7  51
BRANCH   4  60
ATOM     60  O2  UNK     0      -3.945  -1.200  -0.518  0.00  0.00    +0.000 OA
BRANCH  60  61
ATOM     61  C36 UNK     0      -4.586  -2.010  -1.466  0.00  0.00    +0.000 C 
ATOM     62  C38 UNK     0      -4.510  -1.658  -2.917  0.00  0.00    +0.000 C 
ATOM     63  O9  UNK     0      -5.099  -3.109  -1.121  0.00  0.00    +0.000 OA
ENDBRANCH  60  61
ENDBRANCH   4  60
TORSDOF 17
