REMARK  Name = C:\Users\Maximilian\Desktop\Conformers\converted_pdb\conformers_pdb\Docetaxel_conf_57.pdb
REMARK  25 active torsions:
REMARK  status: ('A' for Active; 'I' for Inactive)
REMARK    1  A    between atoms: C17_4  and  O2_58
REMARK    2  A    between atoms: C18_5  and  C29_16
REMARK    3  A    between atoms: C20_7  and  O3_47
REMARK    4  A    between atoms: C21_8  and  O4_45
REMARK    5  A    between atoms: C22_9  and  O5_62
REMARK    6  A    between atoms: C24_11  and  C33_20
REMARK    7  A    between atoms: C24_11  and  C34_21
REMARK    8  A    between atoms: C30_17  and  O7_56
REMARK    9  A    between atoms: C31_18  and  O8_23
REMARK   10  A    between atoms: C32_19  and  C35_22
REMARK   11  A    between atoms: O8_23  and  C39_24
REMARK   12  A    between atoms: C39_24  and  C41_26
REMARK   13  A    between atoms: C41_26  and  O12_27
REMARK   14  A    between atoms: C41_26  and  C44_29
REMARK   15  A    between atoms: C44_29  and  C48_30
REMARK   16  A    between atoms: C44_29  and  N15_36
REMARK   17  A    between atoms: C51_37  and  O13_40
REMARK   18  A    between atoms: O13_40  and  C55_41
REMARK   19  A    between atoms: C55_41  and  C56_42
REMARK   20  A    between atoms: C55_41  and  C57_43
REMARK   21  A    between atoms: C55_41  and  C58_44
REMARK   22  A    between atoms: O3_47  and  C37_48
REMARK   23  A    between atoms: C37_48  and  C40_50
REMARK   24  A    between atoms: O2_58  and  C36_59
REMARK   25  A    between atoms: C36_59  and  C38_60
REMARK                            x       y       z     vdW  Elec       q    Type
REMARK                         _______ _______ _______ _____ _____    ______ ____
ROOT
ATOM      1  O1  UNK     0      -5.769  -1.497   1.813  0.00  0.00    +0.000 OA
ATOM      2  O6  UNK     0      -0.907   1.376   3.751  0.00  0.00    +0.000 OA
ATOM      3  C16 UNK     0      -3.021   0.505   1.137  0.00  0.00    +0.000 C 
ATOM      4  C17 UNK     0      -3.889  -0.834   1.034  0.00  0.00    +0.000 C 
ATOM      5  C18 UNK     0      -3.026   1.154   2.618  0.00  0.00    +0.000 C 
ATOM      6  C19 UNK     0      -4.436  -1.582   2.257  0.00  0.00    +0.000 C 
ATOM      7  C20 UNK     0      -3.313   1.426  -0.169  0.00  0.00    +0.000 C 
ATOM      8  C21 UNK     0      -2.109   2.102  -0.989  0.00  0.00    +0.000 C 
ATOM      9  C22 UNK     0      -3.119  -0.008   3.698  0.00  0.00    +0.000 C 
ATOM     10  C23 UNK     0      -4.345  -0.898   3.606  0.00  0.00    +0.000 C 
ATOM     11  C24 UNK     0      -1.524   3.390  -0.319  0.00  0.00    +0.000 C 
ATOM     12  C25 UNK     0      -5.385  -0.691   0.732  0.00  0.00    +0.000 C 
ATOM     13  C26 UNK     0      -1.690   1.898   2.962  0.00  0.00    +0.000 C 
ATOM     14  C27 UNK     0      -0.978   1.038  -1.281  0.00  0.00    +0.000 C 
ATOM     15  C28 UNK     0      -0.753   2.933   0.926  0.00  0.00    +0.000 C 
ATOM     16  C29 UNK     0      -4.224   2.113   2.838  0.00  0.00    +0.000 C 
ATOM     17  C30 UNK     0      -1.200   3.199   2.362  0.00  0.00    +0.000 C 
ATOM     18  C31 UNK     0       0.360   1.174  -0.502  0.00  0.00    +0.000 C 
ATOM     19  C32 UNK     0       0.269   2.037   0.742  0.00  0.00    +0.000 C 
ATOM     20  C33 UNK     0      -0.518   4.127  -1.268  0.00  0.00    +0.000 C 
ATOM     21  C34 UNK     0      -2.631   4.469  -0.095  0.00  0.00    +0.000 C 
ATOM     22  C35 UNK     0       1.440   1.965   1.708  0.00  0.00    +0.000 C 
ENDROOT
BRANCH   8  23
ATOM     23  O4  UNK     0      -2.631   2.544  -2.234  0.00  0.00    +0.000 OA
ATOM     24  H80 UNK     0      -2.708   1.782  -2.864  0.00  0.00    +0.000 HD
ENDBRANCH   8  23
BRANCH  17  25
ATOM     25  O7  UNK     0      -2.158   4.206   2.535  0.00  0.00    +0.000 OA
ATOM     26  H85 UNK     0      -1.675   5.073   2.572  0.00  0.00    +0.000 HD
ENDBRANCH  17  25
BRANCH   9  27
ATOM     27  O5  UNK     0      -3.006   0.491   5.016  0.00  0.00    +0.000 OA
ATOM     28  H81 UNK     0      -3.883   0.849   5.307  0.00  0.00    +0.000 HD
ENDBRANCH   9  27
BRANCH  18  29
ATOM     29  O8  UNK     0       0.843  -0.123  -0.131  0.00  0.00    +0.000 OA
BRANCH  29  30
ATOM     30  C39 UNK     0       1.380  -1.029  -1.047  0.00  0.00    +0.000 C 
ATOM     31  O11 UNK     0       1.135  -0.916  -2.278  0.00  0.00    +0.000 OA
BRANCH  30  32
ATOM     32  C41 UNK     0       2.345  -2.078  -0.570  0.00  0.00    +0.000 C 
BRANCH  32  33
ATOM     33  O12 UNK     0       1.813  -2.720   0.558  0.00  0.00    +0.000 OA
ATOM     34  H95 UNK     0       1.153  -3.381   0.221  0.00  0.00    +0.000 HD
ENDBRANCH  32  33
BRANCH  32  35
ATOM     35  C44 UNK     0       3.693  -1.425  -0.188  0.00  0.00    +0.000 C 
BRANCH  35  36
ATOM     36  C48 UNK     0       4.314  -0.713  -1.377  0.00  0.00    +0.000 A 
ATOM     37  C50 UNK     0       4.888  -1.441  -2.435  0.00  0.00    +0.000 A 
ATOM     38  C53 UNK     0       5.473  -0.775  -3.519  0.00  0.00    +0.000 A 
ATOM     39  C54 UNK     0       5.468   0.622  -3.570  0.00  0.00    +0.000 A 
ATOM     40  C52 UNK     0       4.872   1.354  -2.538  0.00  0.00    +0.000 A 
ATOM     41  C49 UNK     0       4.303   0.692  -1.445  0.00  0.00    +0.000 A 
ENDBRANCH  35  36
BRANCH  35  42
ATOM     42  N15 UNK     0       4.629  -2.428   0.328  0.00  0.00    +0.000 N 
ATOM     43  C51 UNK     0       5.873  -2.055   0.925  0.00  0.00    +0.000 C 
ATOM     44  O14 UNK     0       6.090  -0.850   1.229  0.00  0.00    +0.000 OA
ATOM     45  H97 UNK     0       4.453  -3.445   0.162  0.00  0.00    +0.000 HD
BRANCH  43  46
ATOM     46  O13 UNK     0       6.845  -3.040   1.145  0.00  0.00    +0.000 OA
BRANCH  46  47
ATOM     47  C55 UNK     0       8.220  -2.803   1.483  0.00  0.00    +0.000 C 
ATOM     48  C56 UNK     0       8.923  -4.167   1.519  0.00  0.00    +0.000 C 
ATOM     49  C57 UNK     0       8.894  -1.916   0.415  0.00  0.00    +0.000 C 
ATOM     50  C58 UNK     0       8.341  -2.154   2.875  0.00  0.00    +0.000 C 
ENDBRANCH  46  47
ENDBRANCH  43  46
ENDBRANCH  35  42
ENDBRANCH  32  35
ENDBRANCH  30  32
ENDBRANCH  29  30
ENDBRANCH  18  29
BRANCH   7  51
ATOM     51  O3  UNK     0      -4.014   0.635  -1.144  0.00  0.00    +0.000 OA
BRANCH  51  52
ATOM     52  C37 UNK     0      -5.099   1.076  -1.917  0.00  0.00    +0.000 C 
ATOM     53  O10 UNK     0      -5.617   2.205  -1.701  0.00  0.00    +0.000 OA
BRANCH  52  54
ATOM     54  C40 UNK     0      -5.612   0.208  -2.996  0.00  0.00    +0.000 A 
ATOM     55  C42 UNK     0      -6.748   0.579  -3.740  0.00  0.00    +0.000 A 
ATOM     56  C45 UNK     0      -7.220  -0.252  -4.760  0.00  0.00    +0.000 A 
ATOM     57  C47 UNK     0      -6.562  -1.452  -5.054  0.00  0.00    +0.000 A 
ATOM     58  C46 UNK     0      -5.449  -1.834  -4.309  0.00  0.00    +0.000 A 
ATOM     59  C43 UNK     0      -4.971  -1.010  -3.285  0.00  0.00    +0.000 A 
ENDBRANCH  52  54
ENDBRANCH  51  52
ENDBRANCH   7  51
BRANCH   4  60
ATOM     60  O2  UNK     0      -3.321  -1.747   0.087  0.00  0.00    +0.000 OA
BRANCH  60  61
ATOM     61  C36 UNK     0      -2.141  -2.471   0.290  0.00  0.00    +0.000 C 
ATOM     62  C38 UNK     0      -1.635  -3.362  -0.793  0.00  0.00    +0.000 C 
ATOM     63  O9  UNK     0      -1.472  -2.347   1.353  0.00  0.00    +0.000 OA
ENDBRANCH  60  61
ENDBRANCH   4  60
TORSDOF 17
