REMARK  Name = C:\Users\Maximilian\Desktop\Conformers\converted_pdb\conformers_pdb\Docetaxel_conf_48.pdb
REMARK  25 active torsions:
REMARK  status: ('A' for Active; 'I' for Inactive)
REMARK    1  A    between atoms: C17_4  and  O2_58
REMARK    2  A    between atoms: C18_5  and  C29_16
REMARK    3  A    between atoms: C20_7  and  O3_47
REMARK    4  A    between atoms: C21_8  and  O4_45
REMARK    5  A    between atoms: C22_9  and  O5_62
REMARK    6  A    between atoms: C24_11  and  C33_20
REMARK    7  A    between atoms: C24_11  and  C34_21
REMARK    8  A    between atoms: C30_17  and  O7_56
REMARK    9  A    between atoms: C31_18  and  O8_23
REMARK   10  A    between atoms: C32_19  and  C35_22
REMARK   11  A    between atoms: O8_23  and  C39_24
REMARK   12  A    between atoms: C39_24  and  C41_26
REMARK   13  A    between atoms: C41_26  and  O12_27
REMARK   14  A    between atoms: C41_26  and  C44_29
REMARK   15  A    between atoms: C44_29  and  C48_30
REMARK   16  A    between atoms: C44_29  and  N15_36
REMARK   17  A    between atoms: C51_37  and  O13_40
REMARK   18  A    between atoms: O13_40  and  C55_41
REMARK   19  A    between atoms: C55_41  and  C56_42
REMARK   20  A    between atoms: C55_41  and  C57_43
REMARK   21  A    between atoms: C55_41  and  C58_44
REMARK   22  A    between atoms: O3_47  and  C37_48
REMARK   23  A    between atoms: C37_48  and  C40_50
REMARK   24  A    between atoms: O2_58  and  C36_59
REMARK   25  A    between atoms: C36_59  and  C38_60
REMARK                            x       y       z     vdW  Elec       q    Type
REMARK                         _______ _______ _______ _____ _____    ______ ____
ROOT
ATOM      1  O1  UNK     0      -5.110  -2.401   1.017  0.00  0.00    +0.000 OA
ATOM      2  O6  UNK     0      -0.684   0.652   3.743  0.00  0.00    +0.000 OA
ATOM      3  C16 UNK     0      -2.739   0.130   0.862  0.00  0.00    +0.000 C 
ATOM      4  C17 UNK     0      -3.434  -1.232   0.386  0.00  0.00    +0.000 C 
ATOM      5  C18 UNK     0      -2.716   0.322   2.474  0.00  0.00    +0.000 C 
ATOM      6  C19 UNK     0      -3.743  -2.390   1.342  0.00  0.00    +0.000 C 
ATOM      7  C20 UNK     0      -3.230   1.346  -0.086  0.00  0.00    +0.000 C 
ATOM      8  C21 UNK     0      -2.162   2.305  -0.802  0.00  0.00    +0.000 C 
ATOM      9  C22 UNK     0      -2.536  -1.104   3.145  0.00  0.00    +0.000 C 
ATOM     10  C23 UNK     0      -3.619  -2.119   2.830  0.00  0.00    +0.000 C 
ATOM     11  C24 UNK     0      -1.634   3.440   0.138  0.00  0.00    +0.000 C 
ATOM     12  C25 UNK     0      -4.955  -1.256   0.226  0.00  0.00    +0.000 C 
ATOM     13  C26 UNK     0      -1.504   1.171   2.995  0.00  0.00    +0.000 C 
ATOM     14  C27 UNK     0      -0.967   1.482  -1.419  0.00  0.00    +0.000 C 
ATOM     15  C28 UNK     0      -0.797   2.740   1.217  0.00  0.00    +0.000 C 
ATOM     16  C29 UNK     0      -4.025   0.965   3.007  0.00  0.00    +0.000 C 
ATOM     17  C30 UNK     0      -1.215   2.624   2.677  0.00  0.00    +0.000 C 
ATOM     18  C31 UNK     0       0.371   1.473  -0.628  0.00  0.00    +0.000 C 
ATOM     19  C32 UNK     0       0.271   1.985   0.800  0.00  0.00    +0.000 C 
ATOM     20  C33 UNK     0      -0.716   4.446  -0.633  0.00  0.00    +0.000 C 
ATOM     21  C34 UNK     0      -2.792   4.363   0.641  0.00  0.00    +0.000 C 
ATOM     22  C35 UNK     0       1.400   1.583   1.727  0.00  0.00    +0.000 C 
ENDROOT
BRANCH   8  23
ATOM     23  O4  UNK     0      -2.818   2.974  -1.865  0.00  0.00    +0.000 OA
ATOM     24  H80 UNK     0      -2.917   2.361  -2.640  0.00  0.00    +0.000 HD
ENDBRANCH   8  23
BRANCH  17  25
ATOM     25  O7  UNK     0      -2.285   3.432   3.068  0.00  0.00    +0.000 OA
ATOM     26  H85 UNK     0      -2.324   3.406   4.059  0.00  0.00    +0.000 HD
ENDBRANCH  17  25
BRANCH   9  27
ATOM     27  O5  UNK     0      -2.391  -1.025   4.549  0.00  0.00    +0.000 OA
ATOM     28  H81 UNK     0      -3.280  -0.878   4.964  0.00  0.00    +0.000 HD
ENDBRANCH   9  27
BRANCH  18  29
ATOM     29  O8  UNK     0       0.909   0.149  -0.602  0.00  0.00    +0.000 OA
BRANCH  29  30
ATOM     30  C39 UNK     0       1.597  -0.421  -1.678  0.00  0.00    +0.000 C 
ATOM     31  O11 UNK     0       1.474   0.052  -2.840  0.00  0.00    +0.000 OA
BRANCH  30  32
ATOM     32  C41 UNK     0       2.568  -1.543  -1.430  0.00  0.00    +0.000 C 
BRANCH  32  33
ATOM     33  O12 UNK     0       1.977  -2.532  -0.627  0.00  0.00    +0.000 OA
ATOM     34  H95 UNK     0       1.826  -2.147   0.274  0.00  0.00    +0.000 HD
ENDBRANCH  32  33
BRANCH  32  35
ATOM     35  C44 UNK     0       3.871  -1.014  -0.781  0.00  0.00    +0.000 C 
BRANCH  35  36
ATOM     36  C48 UNK     0       4.561   0.005  -1.668  0.00  0.00    +0.000 A 
ATOM     37  C50 UNK     0       4.601   1.358  -1.291  0.00  0.00    +0.000 A 
ATOM     38  C53 UNK     0       5.220   2.302  -2.115  0.00  0.00    +0.000 A 
ATOM     39  C54 UNK     0       5.794   1.907  -3.325  0.00  0.00    +0.000 A 
ATOM     40  C52 UNK     0       5.750   0.568  -3.715  0.00  0.00    +0.000 A 
ATOM     41  C49 UNK     0       5.133  -0.380  -2.894  0.00  0.00    +0.000 A 
ENDBRANCH  35  36
BRANCH  35  42
ATOM     42  N15 UNK     0       4.789  -2.124  -0.499  0.00  0.00    +0.000 N 
ATOM     43  C51 UNK     0       5.772  -2.064   0.540  0.00  0.00    +0.000 C 
ATOM     44  O14 UNK     0       5.808  -1.072   1.322  0.00  0.00    +0.000 OA
ATOM     45  H97 UNK     0       4.809  -2.948  -1.146  0.00  0.00    +0.000 HD
BRANCH  43  46
ATOM     46  O13 UNK     0       6.686  -3.120   0.670  0.00  0.00    +0.000 OA
BRANCH  46  47
ATOM     47  C55 UNK     0       7.693  -3.253   1.684  0.00  0.00    +0.000 C 
ATOM     48  C56 UNK     0       7.051  -3.290   3.084  0.00  0.00    +0.000 C 
ATOM     49  C57 UNK     0       8.414  -4.587   1.435  0.00  0.00    +0.000 C 
ATOM     50  C58 UNK     0       8.718  -2.106   1.587  0.00  0.00    +0.000 C 
ENDBRANCH  46  47
ENDBRANCH  43  46
ENDBRANCH  35  42
ENDBRANCH  32  35
ENDBRANCH  30  32
ENDBRANCH  29  30
ENDBRANCH  18  29
BRANCH   7  51
ATOM     51  O3  UNK     0      -4.066   0.845  -1.141  0.00  0.00    +0.000 OA
BRANCH  51  52
ATOM     52  C37 UNK     0      -5.273   1.430  -1.559  0.00  0.00    +0.000 C 
ATOM     53  O10 UNK     0      -5.718   2.459  -0.981  0.00  0.00    +0.000 OA
BRANCH  52  54
ATOM     54  C40 UNK     0      -6.026   0.824  -2.675  0.00  0.00    +0.000 A 
ATOM     55  C42 UNK     0      -5.442  -0.193  -3.451  0.00  0.00    +0.000 A 
ATOM     56  C45 UNK     0      -6.154  -0.780  -4.502  0.00  0.00    +0.000 A 
ATOM     57  C47 UNK     0      -7.453  -0.357  -4.785  0.00  0.00    +0.000 A 
ATOM     58  C46 UNK     0      -8.042   0.655  -4.024  0.00  0.00    +0.000 A 
ATOM     59  C43 UNK     0      -7.332   1.247  -2.975  0.00  0.00    +0.000 A 
ENDBRANCH  52  54
ENDBRANCH  51  52
ENDBRANCH   7  51
BRANCH   4  60
ATOM     60  O2  UNK     0      -2.855  -1.708  -0.834  0.00  0.00    +0.000 OA
BRANCH  60  61
ATOM     61  C36 UNK     0      -1.603  -2.321  -0.937  0.00  0.00    +0.000 C 
ATOM     62  C38 UNK     0      -1.160  -2.834  -2.264  0.00  0.00    +0.000 C 
ATOM     63  O9  UNK     0      -0.883  -2.498   0.082  0.00  0.00    +0.000 OA
ENDBRANCH  60  61
ENDBRANCH   4  60
TORSDOF 17
