REMARK  Name = C:\Users\Maximilian\Desktop\Conformers\converted_pdb\conformers_pdb\Docetaxel_conf_4.pdb
REMARK  25 active torsions:
REMARK  status: ('A' for Active; 'I' for Inactive)
REMARK    1  A    between atoms: C17_4  and  O2_58
REMARK    2  A    between atoms: C18_5  and  C29_16
REMARK    3  A    between atoms: C20_7  and  O3_47
REMARK    4  A    between atoms: C21_8  and  O4_45
REMARK    5  A    between atoms: C22_9  and  O5_62
REMARK    6  A    between atoms: C24_11  and  C33_20
REMARK    7  A    between atoms: C24_11  and  C34_21
REMARK    8  A    between atoms: C30_17  and  O7_56
REMARK    9  A    between atoms: C31_18  and  O8_23
REMARK   10  A    between atoms: C32_19  and  C35_22
REMARK   11  A    between atoms: O8_23  and  C39_24
REMARK   12  A    between atoms: C39_24  and  C41_26
REMARK   13  A    between atoms: C41_26  and  O12_27
REMARK   14  A    between atoms: C41_26  and  C44_29
REMARK   15  A    between atoms: C44_29  and  C48_30
REMARK   16  A    between atoms: C44_29  and  N15_36
REMARK   17  A    between atoms: C51_37  and  O13_40
REMARK   18  A    between atoms: O13_40  and  C55_41
REMARK   19  A    between atoms: C55_41  and  C56_42
REMARK   20  A    between atoms: C55_41  and  C57_43
REMARK   21  A    between atoms: C55_41  and  C58_44
REMARK   22  A    between atoms: O3_47  and  C37_48
REMARK   23  A    between atoms: C37_48  and  C40_50
REMARK   24  A    between atoms: O2_58  and  C36_59
REMARK   25  A    between atoms: C36_59  and  C38_60
REMARK                            x       y       z     vdW  Elec       q    Type
REMARK                         _______ _______ _______ _____ _____    ______ ____
ROOT
ATOM      1  O1  UNK     0      -5.801   2.451   2.350  0.00  0.00    +0.000 OA
ATOM      2  O6  UNK     0      -0.890   2.949   0.652  0.00  0.00    +0.000 OA
ATOM      3  C16 UNK     0      -3.424   1.371   0.191  0.00  0.00    +0.000 C 
ATOM      4  C17 UNK     0      -4.618   1.083   1.229  0.00  0.00    +0.000 C 
ATOM      5  C18 UNK     0      -3.151   2.957  -0.036  0.00  0.00    +0.000 C 
ATOM      6  C19 UNK     0      -4.524   1.867   2.533  0.00  0.00    +0.000 C 
ATOM      7  C20 UNK     0      -3.414   0.370  -1.096  0.00  0.00    +0.000 C 
ATOM      8  C21 UNK     0      -2.065  -0.017  -1.929  0.00  0.00    +0.000 C 
ATOM      9  C22 UNK     0      -3.401   3.798   1.320  0.00  0.00    +0.000 C 
ATOM     10  C23 UNK     0      -3.419   2.924   2.579  0.00  0.00    +0.000 C 
ATOM     11  C24 UNK     0      -1.477   1.075  -2.948  0.00  0.00    +0.000 C 
ATOM     12  C25 UNK     0      -5.945   1.826   1.089  0.00  0.00    +0.000 C 
ATOM     13  C26 UNK     0      -1.625   3.120  -0.317  0.00  0.00    +0.000 C 
ATOM     14  C27 UNK     0      -0.965  -0.529  -0.900  0.00  0.00    +0.000 C 
ATOM     15  C28 UNK     0      -0.490   1.962  -2.176  0.00  0.00    +0.000 C 
ATOM     16  C29 UNK     0      -4.081   3.564  -1.160  0.00  0.00    +0.000 C 
ATOM     17  C30 UNK     0      -0.873   3.331  -1.636  0.00  0.00    +0.000 C 
ATOM     18  C31 UNK     0       0.489  -0.167  -1.249  0.00  0.00    +0.000 C 
ATOM     19  C32 UNK     0       0.581   1.330  -1.578  0.00  0.00    +0.000 C 
ATOM     20  C33 UNK     0      -0.659   0.459  -4.145  0.00  0.00    +0.000 C 
ATOM     21  C34 UNK     0      -2.602   1.803  -3.729  0.00  0.00    +0.000 C 
ATOM     22  C35 UNK     0       1.783   2.106  -1.087  0.00  0.00    +0.000 C 
ENDROOT
BRANCH   8  23
ATOM     23  O4  UNK     0      -2.436  -1.113  -2.750  0.00  0.00    +0.000 OA
ATOM     24  H80 UNK     0      -1.648  -1.700  -2.915  0.00  0.00    +0.000 HD
ENDBRANCH   8  23
BRANCH  17  25
ATOM     25  O7  UNK     0      -1.496   4.157  -2.585  0.00  0.00    +0.000 OA
ATOM     26  H85 UNK     0      -1.575   5.057  -2.175  0.00  0.00    +0.000 HD
ENDBRANCH  17  25
BRANCH   9  27
ATOM     27  O5  UNK     0      -4.601   4.546   1.311  0.00  0.00    +0.000 OA
ATOM     28  H81 UNK     0      -4.365   5.514   1.298  0.00  0.00    +0.000 HD
ENDBRANCH   9  27
BRANCH  18  29
ATOM     29  O8  UNK     0       1.330  -0.444  -0.125  0.00  0.00    +0.000 OA
BRANCH  29  30
ATOM     30  C39 UNK     0       1.751  -1.716   0.279  0.00  0.00    +0.000 C 
ATOM     31  O11 UNK     0       1.242  -2.750  -0.220  0.00  0.00    +0.000 OA
BRANCH  30  32
ATOM     32  C41 UNK     0       2.824  -1.822   1.335  0.00  0.00    +0.000 C 
BRANCH  32  33
ATOM     33  O12 UNK     0       2.365  -1.246   2.536  0.00  0.00    +0.000 OA
ATOM     34  H95 UNK     0       2.215  -0.278   2.363  0.00  0.00    +0.000 HD
ENDBRANCH  32  33
BRANCH  32  35
ATOM     35  C44 UNK     0       4.129  -1.137   0.857  0.00  0.00    +0.000 C 
BRANCH  35  36
ATOM     36  C48 UNK     0       4.707  -1.827  -0.365  0.00  0.00    +0.000 A 
ATOM     37  C50 UNK     0       4.686  -1.184  -1.618  0.00  0.00    +0.000 A 
ATOM     38  C53 UNK     0       5.224  -1.813  -2.743  0.00  0.00    +0.000 A 
ATOM     39  C54 UNK     0       5.783  -3.088  -2.636  0.00  0.00    +0.000 A 
ATOM     40  C52 UNK     0       5.818  -3.736  -1.396  0.00  0.00    +0.000 A 
ATOM     41  C49 UNK     0       5.276  -3.114  -0.266  0.00  0.00    +0.000 A 
ENDBRANCH  35  36
BRANCH  35  42
ATOM     42  N15 UNK     0       5.126  -1.100   1.931  0.00  0.00    +0.000 N 
ATOM     43  C51 UNK     0       6.213  -0.164   1.931  0.00  0.00    +0.000 C 
ATOM     44  O14 UNK     0       6.273   0.729   1.042  0.00  0.00    +0.000 OA
ATOM     45  H97 UNK     0       5.106  -1.823   2.686  0.00  0.00    +0.000 HD
BRANCH  43  46
ATOM     46  O13 UNK     0       7.188  -0.254   2.941  0.00  0.00    +0.000 OA
BRANCH  46  47
ATOM     47  C55 UNK     0       8.318   0.619   3.109  0.00  0.00    +0.000 C 
ATOM     48  C56 UNK     0       7.840   2.054   3.408  0.00  0.00    +0.000 C 
ATOM     49  C57 UNK     0       9.123   0.098   4.311  0.00  0.00    +0.000 C 
ATOM     50  C58 UNK     0       9.227   0.597   1.859  0.00  0.00    +0.000 C 
ENDBRANCH  46  47
ENDBRANCH  43  46
ENDBRANCH  35  42
ENDBRANCH  32  35
ENDBRANCH  30  32
ENDBRANCH  29  30
ENDBRANCH  18  29
BRANCH   7  51
ATOM     51  O3  UNK     0      -3.901  -0.903  -0.651  0.00  0.00    +0.000 OA
BRANCH  51  52
ATOM     52  C37 UNK     0      -4.741  -1.753  -1.385  0.00  0.00    +0.000 C 
ATOM     53  O10 UNK     0      -5.464  -1.296  -2.311  0.00  0.00    +0.000 OA
BRANCH  52  54
ATOM     54  C40 UNK     0      -4.744  -3.202  -1.087  0.00  0.00    +0.000 A 
ATOM     55  C42 UNK     0      -3.846  -3.737  -0.139  0.00  0.00    +0.000 A 
ATOM     56  C45 UNK     0      -3.839  -5.106   0.134  0.00  0.00    +0.000 A 
ATOM     57  C47 UNK     0      -4.704  -5.964  -0.544  0.00  0.00    +0.000 A 
ATOM     58  C46 UNK     0      -5.584  -5.450  -1.498  0.00  0.00    +0.000 A 
ATOM     59  C43 UNK     0      -5.611  -4.076  -1.769  0.00  0.00    +0.000 A 
ENDBRANCH  52  54
ENDBRANCH  51  52
ENDBRANCH   7  51
BRANCH   4  60
ATOM     60  O2  UNK     0      -4.804  -0.324   1.510  0.00  0.00    +0.000 OA
BRANCH  60  61
ATOM     61  C36 UNK     0      -5.812  -0.912   2.306  0.00  0.00    +0.000 C 
ATOM     62  C38 UNK     0      -6.160  -2.354   2.115  0.00  0.00    +0.000 C 
ATOM     63  O9  UNK     0      -6.419  -0.246   3.199  0.00  0.00    +0.000 OA
ENDBRANCH  60  61
ENDBRANCH   4  60
TORSDOF 17
