REMARK  Name = C:\Users\Maximilian\Desktop\Conformers\converted_pdb\conformers_pdb\Docetaxel_conf_28.pdb
REMARK  25 active torsions:
REMARK  status: ('A' for Active; 'I' for Inactive)
REMARK    1  A    between atoms: C17_4  and  O2_58
REMARK    2  A    between atoms: C18_5  and  C29_16
REMARK    3  A    between atoms: C20_7  and  O3_47
REMARK    4  A    between atoms: C21_8  and  O4_45
REMARK    5  A    between atoms: C22_9  and  O5_62
REMARK    6  A    between atoms: C24_11  and  C33_20
REMARK    7  A    between atoms: C24_11  and  C34_21
REMARK    8  A    between atoms: C30_17  and  O7_56
REMARK    9  A    between atoms: C31_18  and  O8_23
REMARK   10  A    between atoms: C32_19  and  C35_22
REMARK   11  A    between atoms: O8_23  and  C39_24
REMARK   12  A    between atoms: C39_24  and  C41_26
REMARK   13  A    between atoms: C41_26  and  O12_27
REMARK   14  A    between atoms: C41_26  and  C44_29
REMARK   15  A    between atoms: C44_29  and  C48_30
REMARK   16  A    between atoms: C44_29  and  N15_36
REMARK   17  A    between atoms: C51_37  and  O13_40
REMARK   18  A    between atoms: O13_40  and  C55_41
REMARK   19  A    between atoms: C55_41  and  C56_42
REMARK   20  A    between atoms: C55_41  and  C57_43
REMARK   21  A    between atoms: C55_41  and  C58_44
REMARK   22  A    between atoms: O3_47  and  C37_48
REMARK   23  A    between atoms: C37_48  and  C40_50
REMARK   24  A    between atoms: O2_58  and  C36_59
REMARK   25  A    between atoms: C36_59  and  C38_60
REMARK                            x       y       z     vdW  Elec       q    Type
REMARK                         _______ _______ _______ _____ _____    ______ ____
ROOT
ATOM      1  O1  UNK     0      -5.518  -1.656  -2.742  0.00  0.00    +0.000 OA
ATOM      2  O6  UNK     0      -0.488  -2.905  -1.125  0.00  0.00    +0.000 OA
ATOM      3  C16 UNK     0      -2.987  -1.204  -0.793  0.00  0.00    +0.000 C 
ATOM      4  C17 UNK     0      -4.129  -0.467  -1.662  0.00  0.00    +0.000 C 
ATOM      5  C18 UNK     0      -2.843  -2.783  -1.189  0.00  0.00    +0.000 C 
ATOM      6  C19 UNK     0      -4.320  -0.987  -3.070  0.00  0.00    +0.000 C 
ATOM      7  C20 UNK     0      -3.025  -0.566   0.713  0.00  0.00    +0.000 C 
ATOM      8  C21 UNK     0      -2.331  -0.927   2.158  0.00  0.00    +0.000 C 
ATOM      9  C22 UNK     0      -2.694  -2.983  -2.776  0.00  0.00    +0.000 C 
ATOM     10  C23 UNK     0      -3.188  -1.824  -3.642  0.00  0.00    +0.000 C 
ATOM     11  C24 UNK     0      -2.183  -2.430   2.593  0.00  0.00    +0.000 C 
ATOM     12  C25 UNK     0      -5.524  -1.037  -1.469  0.00  0.00    +0.000 C 
ATOM     13  C26 UNK     0      -1.521  -3.312  -0.612  0.00  0.00    +0.000 C 
ATOM     14  C27 UNK     0      -0.928  -0.231   2.370  0.00  0.00    +0.000 C 
ATOM     15  C28 UNK     0      -1.080  -3.086   1.737  0.00  0.00    +0.000 C 
ATOM     16  C29 UNK     0      -4.037  -3.701  -0.782  0.00  0.00    +0.000 C 
ATOM     17  C30 UNK     0      -1.333  -4.120   0.659  0.00  0.00    +0.000 C 
ATOM     18  C31 UNK     0       0.324  -0.996   1.910  0.00  0.00    +0.000 C 
ATOM     19  C32 UNK     0       0.154  -2.491   1.723  0.00  0.00    +0.000 C 
ATOM     20  C33 UNK     0      -1.669  -2.556   4.074  0.00  0.00    +0.000 C 
ATOM     21  C34 UNK     0      -3.607  -3.068   2.669  0.00  0.00    +0.000 C 
ATOM     22  C35 UNK     0       1.416  -3.269   1.392  0.00  0.00    +0.000 C 
ENDROOT
BRANCH   8  23
ATOM     23  O4  UNK     0      -3.219  -0.372   3.125  0.00  0.00    +0.000 OA
ATOM     24  H80 UNK     0      -2.932   0.536   3.405  0.00  0.00    +0.000 HD
ENDBRANCH   8  23
BRANCH  17  25
ATOM     25  O7  UNK     0      -2.374  -5.006   0.941  0.00  0.00    +0.000 OA
ATOM     26  H85 UNK     0      -2.028  -5.645   1.628  0.00  0.00    +0.000 HD
ENDBRANCH  17  25
BRANCH   9  27
ATOM     27  O5  UNK     0      -3.293  -4.175  -3.240  0.00  0.00    +0.000 OA
ATOM     28  H81 UNK     0      -2.840  -4.443  -4.081  0.00  0.00    +0.000 HD
ENDBRANCH   9  27
BRANCH  18  29
ATOM     29  O8  UNK     0       0.801  -0.424   0.695  0.00  0.00    +0.000 OA
BRANCH  29  30
ATOM     30  C39 UNK     0       1.467   0.805   0.638  0.00  0.00    +0.000 C 
ATOM     31  O11 UNK     0       1.772   1.398   1.710  0.00  0.00    +0.000 OA
BRANCH  30  32
ATOM     32  C41 UNK     0       1.851   1.421  -0.675  0.00  0.00    +0.000 C 
BRANCH  32  33
ATOM     33  O12 UNK     0       1.073   0.835  -1.693  0.00  0.00    +0.000 OA
ATOM     34  H95 UNK     0       1.083   1.470  -2.455  0.00  0.00    +0.000 HD
ENDBRANCH  32  33
BRANCH  32  35
ATOM     35  C44 UNK     0       3.358   1.266  -1.003  0.00  0.00    +0.000 C 
BRANCH  35  36
ATOM     36  C48 UNK     0       3.789  -0.193  -1.037  0.00  0.00    +0.000 A 
ATOM     37  C50 UNK     0       4.198  -0.875   0.129  0.00  0.00    +0.000 A 
ATOM     38  C53 UNK     0       4.545  -2.227   0.068  0.00  0.00    +0.000 A 
ATOM     39  C54 UNK     0       4.493  -2.916  -1.145  0.00  0.00    +0.000 A 
ATOM     40  C52 UNK     0       4.048  -2.263  -2.298  0.00  0.00    +0.000 A 
ATOM     41  C49 UNK     0       3.707  -0.908  -2.245  0.00  0.00    +0.000 A 
ENDBRANCH  35  36
BRANCH  35  42
ATOM     42  N15 UNK     0       4.190   2.041  -0.067  0.00  0.00    +0.000 N 
ATOM     43  C51 UNK     0       5.592   2.240  -0.259  0.00  0.00    +0.000 C 
ATOM     44  O14 UNK     0       6.138   1.878  -1.335  0.00  0.00    +0.000 OA
ATOM     45  H97 UNK     0       3.749   2.546   0.729  0.00  0.00    +0.000 HD
BRANCH  43  46
ATOM     46  O13 UNK     0       6.335   2.847   0.763  0.00  0.00    +0.000 OA
BRANCH  46  47
ATOM     47  C55 UNK     0       7.732   3.182   0.729  0.00  0.00    +0.000 C 
ATOM     48  C56 UNK     0       8.027   4.190  -0.395  0.00  0.00    +0.000 C 
ATOM     49  C57 UNK     0       8.064   3.836   2.076  0.00  0.00    +0.000 C 
ATOM     50  C58 UNK     0       8.592   1.912   0.572  0.00  0.00    +0.000 C 
ENDBRANCH  46  47
ENDBRANCH  43  46
ENDBRANCH  35  42
ENDBRANCH  32  35
ENDBRANCH  30  32
ENDBRANCH  29  30
ENDBRANCH  18  29
BRANCH   7  51
ATOM     51  O3  UNK     0      -2.674   0.803   0.479  0.00  0.00    +0.000 OA
BRANCH  51  52
ATOM     52  C37 UNK     0      -3.261   1.941   1.036  0.00  0.00    +0.000 C 
ATOM     53  O10 UNK     0      -4.231   1.835   1.838  0.00  0.00    +0.000 OA
BRANCH  52  54
ATOM     54  C40 UNK     0      -2.743   3.267   0.633  0.00  0.00    +0.000 A 
ATOM     55  C42 UNK     0      -3.351   4.449   1.098  0.00  0.00    +0.000 A 
ATOM     56  C45 UNK     0      -2.911   5.702   0.648  0.00  0.00    +0.000 A 
ATOM     57  C47 UNK     0      -1.878   5.784  -0.292  0.00  0.00    +0.000 A 
ATOM     58  C46 UNK     0      -1.265   4.615  -0.755  0.00  0.00    +0.000 A 
ATOM     59  C43 UNK     0      -1.695   3.363  -0.302  0.00  0.00    +0.000 A 
ENDBRANCH  52  54
ENDBRANCH  51  52
ENDBRANCH   7  51
BRANCH   4  60
ATOM     60  O2  UNK     0      -4.116   0.983  -1.594  0.00  0.00    +0.000 OA
BRANCH  60  61
ATOM     61  C36 UNK     0      -5.100   1.875  -2.107  0.00  0.00    +0.000 C 
ATOM     62  C38 UNK     0      -5.584   3.040  -1.308  0.00  0.00    +0.000 C 
ATOM     63  O9  UNK     0      -5.571   1.723  -3.260  0.00  0.00    +0.000 OA
ENDBRANCH  60  61
ENDBRANCH   4  60
TORSDOF 17
