REMARK  Name = C:\Users\Maximilian\Desktop\Conformers\converted_pdb\conformers_pdb\Docetaxel_conf_51.pdb
REMARK  25 active torsions:
REMARK  status: ('A' for Active; 'I' for Inactive)
REMARK    1  A    between atoms: C17_4  and  O2_58
REMARK    2  A    between atoms: C18_5  and  C29_16
REMARK    3  A    between atoms: C20_7  and  O3_47
REMARK    4  A    between atoms: C21_8  and  O4_45
REMARK    5  A    between atoms: C22_9  and  O5_62
REMARK    6  A    between atoms: C24_11  and  C33_20
REMARK    7  A    between atoms: C24_11  and  C34_21
REMARK    8  A    between atoms: C30_17  and  O7_56
REMARK    9  A    between atoms: C31_18  and  O8_23
REMARK   10  A    between atoms: C32_19  and  C35_22
REMARK   11  A    between atoms: O8_23  and  C39_24
REMARK   12  A    between atoms: C39_24  and  C41_26
REMARK   13  A    between atoms: C41_26  and  O12_27
REMARK   14  A    between atoms: C41_26  and  C44_29
REMARK   15  A    between atoms: C44_29  and  C48_30
REMARK   16  A    between atoms: C44_29  and  N15_36
REMARK   17  A    between atoms: C51_37  and  O13_40
REMARK   18  A    between atoms: O13_40  and  C55_41
REMARK   19  A    between atoms: C55_41  and  C56_42
REMARK   20  A    between atoms: C55_41  and  C57_43
REMARK   21  A    between atoms: C55_41  and  C58_44
REMARK   22  A    between atoms: O3_47  and  C37_48
REMARK   23  A    between atoms: C37_48  and  C40_50
REMARK   24  A    between atoms: O2_58  and  C36_59
REMARK   25  A    between atoms: C36_59  and  C38_60
REMARK                            x       y       z     vdW  Elec       q    Type
REMARK                         _______ _______ _______ _____ _____    ______ ____
ROOT
ATOM      1  O1  UNK     0      -4.732   2.951   1.576  0.00  0.00    +0.000 OA
ATOM      2  O6  UNK     0      -1.558   3.849  -2.919  0.00  0.00    +0.000 OA
ATOM      3  C16 UNK     0      -3.057   1.279  -0.785  0.00  0.00    +0.000 C 
ATOM      4  C17 UNK     0      -3.474   1.468   0.738  0.00  0.00    +0.000 C 
ATOM      5  C18 UNK     0      -3.266   2.566  -1.781  0.00  0.00    +0.000 C 
ATOM      6  C19 UNK     0      -3.336   2.838   1.357  0.00  0.00    +0.000 C 
ATOM      7  C20 UNK     0      -3.552  -0.159  -1.315  0.00  0.00    +0.000 C 
ATOM      8  C21 UNK     0      -2.474  -1.259  -1.775  0.00  0.00    +0.000 C 
ATOM      9  C22 UNK     0      -3.430   3.939  -0.943  0.00  0.00    +0.000 C 
ATOM     10  C23 UNK     0      -2.776   3.914   0.440  0.00  0.00    +0.000 C 
ATOM     11  C24 UNK     0      -1.882  -0.951  -3.212  0.00  0.00    +0.000 C 
ATOM     12  C25 UNK     0      -4.956   1.675   1.006  0.00  0.00    +0.000 C 
ATOM     13  C26 UNK     0      -2.043   2.737  -2.763  0.00  0.00    +0.000 C 
ATOM     14  C27 UNK     0      -1.313  -1.400  -0.707  0.00  0.00    +0.000 C 
ATOM     15  C28 UNK     0      -1.080   0.365  -3.026  0.00  0.00    +0.000 C 
ATOM     16  C29 UNK     0      -4.523   2.444  -2.690  0.00  0.00    +0.000 C 
ATOM     17  C30 UNK     0      -1.446   1.683  -3.707  0.00  0.00    +0.000 C 
ATOM     18  C31 UNK     0       0.068  -0.843  -1.148  0.00  0.00    +0.000 C 
ATOM     19  C32 UNK     0      -0.089   0.371  -2.063  0.00  0.00    +0.000 C 
ATOM     20  C33 UNK     0      -0.907  -2.079  -3.728  0.00  0.00    +0.000 C 
ATOM     21  C34 UNK     0      -3.015  -0.943  -4.291  0.00  0.00    +0.000 C 
ATOM     22  C35 UNK     0       0.812   1.581  -1.835  0.00  0.00    +0.000 C 
ENDROOT
BRANCH   8  23
ATOM     23  O4  UNK     0      -3.183  -2.485  -1.836  0.00  0.00    +0.000 OA
ATOM     24  H80 UNK     0      -2.554  -3.236  -1.995  0.00  0.00    +0.000 HD
ENDBRANCH   8  23
BRANCH  17  25
ATOM     25  O7  UNK     0      -2.240   1.537  -4.850  0.00  0.00    +0.000 OA
ATOM     26  H85 UNK     0      -2.193   2.397  -5.347  0.00  0.00    +0.000 HD
ENDBRANCH  17  25
BRANCH   9  27
ATOM     27  O5  UNK     0      -4.743   4.466  -0.889  0.00  0.00    +0.000 OA
ATOM     28  H81 UNK     0      -5.353   3.763  -0.586  0.00  0.00    +0.000 HD
ENDBRANCH   9  27
BRANCH  18  29
ATOM     29  O8  UNK     0       0.858  -0.552   0.016  0.00  0.00    +0.000 OA
BRANCH  29  30
ATOM     30  C39 UNK     0       2.190  -0.976   0.164  0.00  0.00    +0.000 C 
ATOM     31  O11 UNK     0       2.664  -1.835  -0.633  0.00  0.00    +0.000 OA
BRANCH  30  32
ATOM     32  C41 UNK     0       3.051  -0.420   1.278  0.00  0.00    +0.000 C 
BRANCH  32  33
ATOM     33  O12 UNK     0       2.772   0.950   1.429  0.00  0.00    +0.000 OA
ATOM     34  H95 UNK     0       1.934   1.012   1.957  0.00  0.00    +0.000 HD
ENDBRANCH  32  33
BRANCH  32  35
ATOM     35  C44 UNK     0       4.567  -0.594   0.970  0.00  0.00    +0.000 C 
BRANCH  35  36
ATOM     36  C48 UNK     0       5.019  -2.042   1.067  0.00  0.00    +0.000 A 
ATOM     37  C50 UNK     0       5.563  -2.690  -0.059  0.00  0.00    +0.000 A 
ATOM     38  C53 UNK     0       5.971  -4.025   0.018  0.00  0.00    +0.000 A 
ATOM     39  C54 UNK     0       5.849  -4.730   1.217  0.00  0.00    +0.000 A 
ATOM     40  C52 UNK     0       5.320  -4.097   2.346  0.00  0.00    +0.000 A 
ATOM     41  C49 UNK     0       4.909  -2.759   2.279  0.00  0.00    +0.000 A 
ENDBRANCH  35  36
BRANCH  35  42
ATOM     42  N15 UNK     0       5.392   0.224   1.866  0.00  0.00    +0.000 N 
ATOM     43  C51 UNK     0       6.673   0.724   1.456  0.00  0.00    +0.000 C 
ATOM     44  O14 UNK     0       7.024   0.641   0.245  0.00  0.00    +0.000 OA
ATOM     45  H97 UNK     0       5.137   0.283   2.879  0.00  0.00    +0.000 HD
BRANCH  43  46
ATOM     46  O13 UNK     0       7.540   1.265   2.414  0.00  0.00    +0.000 OA
BRANCH  46  47
ATOM     47  C55 UNK     0       8.818   1.868   2.152  0.00  0.00    +0.000 C 
ATOM     48  C56 UNK     0       9.772   0.865   1.466  0.00  0.00    +0.000 C 
ATOM     49  C57 UNK     0       8.646   3.130   1.283  0.00  0.00    +0.000 C 
ATOM     50  C58 UNK     0       9.412   2.276   3.509  0.00  0.00    +0.000 C 
ENDBRANCH  46  47
ENDBRANCH  43  46
ENDBRANCH  35  42
ENDBRANCH  32  35
ENDBRANCH  30  32
ENDBRANCH  29  30
ENDBRANCH  18  29
BRANCH   7  51
ATOM     51  O3  UNK     0      -4.411  -0.777  -0.340  0.00  0.00    +0.000 OA
BRANCH  51  52
ATOM     52  C37 UNK     0      -5.626  -1.420  -0.635  0.00  0.00    +0.000 C 
ATOM     53  O10 UNK     0      -6.111  -1.372  -1.799  0.00  0.00    +0.000 OA
BRANCH  52  54
ATOM     54  C40 UNK     0      -6.335  -2.166   0.424  0.00  0.00    +0.000 A 
ATOM     55  C42 UNK     0      -5.718  -2.392   1.666  0.00  0.00    +0.000 A 
ATOM     56  C45 UNK     0      -6.383  -3.108   2.665  0.00  0.00    +0.000 A 
ATOM     57  C47 UNK     0      -7.666  -3.615   2.430  0.00  0.00    +0.000 A 
ATOM     58  C46 UNK     0      -8.290  -3.395   1.201  0.00  0.00    +0.000 A 
ATOM     59  C43 UNK     0      -7.632  -2.675   0.201  0.00  0.00    +0.000 A 
ENDBRANCH  52  54
ENDBRANCH  51  52
ENDBRANCH   7  51
BRANCH   4  60
ATOM     60  O2  UNK     0      -2.893   0.440   1.565  0.00  0.00    +0.000 OA
BRANCH  60  61
ATOM     61  C36 UNK     0      -3.098   0.197   2.936  0.00  0.00    +0.000 C 
ATOM     62  C38 UNK     0      -2.452  -0.989   3.565  0.00  0.00    +0.000 C 
ATOM     63  O9  UNK     0      -3.809   0.963   3.645  0.00  0.00    +0.000 OA
ENDBRANCH  60  61
ENDBRANCH   4  60
TORSDOF 17
