REMARK  Name = C:\Users\Maximilian\Desktop\Conformers\converted_pdb\conformers_pdb\Docetaxel_conf_42.pdb
REMARK  25 active torsions:
REMARK  status: ('A' for Active; 'I' for Inactive)
REMARK    1  A    between atoms: C17_4  and  O2_58
REMARK    2  A    between atoms: C18_5  and  C29_16
REMARK    3  A    between atoms: C20_7  and  O3_47
REMARK    4  A    between atoms: C21_8  and  O4_45
REMARK    5  A    between atoms: C22_9  and  O5_62
REMARK    6  A    between atoms: C24_11  and  C33_20
REMARK    7  A    between atoms: C24_11  and  C34_21
REMARK    8  A    between atoms: C30_17  and  O7_56
REMARK    9  A    between atoms: C31_18  and  O8_23
REMARK   10  A    between atoms: C32_19  and  C35_22
REMARK   11  A    between atoms: O8_23  and  C39_24
REMARK   12  A    between atoms: C39_24  and  C41_26
REMARK   13  A    between atoms: C41_26  and  O12_27
REMARK   14  A    between atoms: C41_26  and  C44_29
REMARK   15  A    between atoms: C44_29  and  C48_30
REMARK   16  A    between atoms: C44_29  and  N15_36
REMARK   17  A    between atoms: C51_37  and  O13_40
REMARK   18  A    between atoms: O13_40  and  C55_41
REMARK   19  A    between atoms: C55_41  and  C56_42
REMARK   20  A    between atoms: C55_41  and  C57_43
REMARK   21  A    between atoms: C55_41  and  C58_44
REMARK   22  A    between atoms: O3_47  and  C37_48
REMARK   23  A    between atoms: C37_48  and  C40_50
REMARK   24  A    between atoms: O2_58  and  C36_59
REMARK   25  A    between atoms: C36_59  and  C38_60
REMARK                            x       y       z     vdW  Elec       q    Type
REMARK                         _______ _______ _______ _____ _____    ______ ____
ROOT
ATOM      1  O1  UNK     0      -5.188  -0.650   1.934  0.00  0.00    +0.000 OA
ATOM      2  O6  UNK     0      -0.087   2.455   2.829  0.00  0.00    +0.000 OA
ATOM      3  C16 UNK     0      -2.346   0.771   0.579  0.00  0.00    +0.000 C 
ATOM      4  C17 UNK     0      -3.362  -0.434   0.846  0.00  0.00    +0.000 C 
ATOM      5  C18 UNK     0      -2.185   1.786   1.830  0.00  0.00    +0.000 C 
ATOM      6  C19 UNK     0      -3.829  -0.817   2.255  0.00  0.00    +0.000 C 
ATOM      7  C20 UNK     0      -2.588   1.378  -0.899  0.00  0.00    +0.000 C 
ATOM      8  C21 UNK     0      -1.389   1.448  -1.969  0.00  0.00    +0.000 C 
ATOM      9  C22 UNK     0      -2.211   0.918   3.161  0.00  0.00    +0.000 C 
ATOM     10  C23 UNK     0      -3.490   0.127   3.398  0.00  0.00    +0.000 C 
ATOM     11  C24 UNK     0      -0.545   2.757  -1.824  0.00  0.00    +0.000 C 
ATOM     12  C25 UNK     0      -4.858  -0.181   0.656  0.00  0.00    +0.000 C 
ATOM     13  C26 UNK     0      -0.816   2.556   1.851  0.00  0.00    +0.000 C 
ATOM     14  C27 UNK     0      -0.458   0.180  -1.900  0.00  0.00    +0.000 C 
ATOM     15  C28 UNK     0       0.132   2.646  -0.450  0.00  0.00    +0.000 C 
ATOM     16  C29 UNK     0      -3.327   2.837   1.889  0.00  0.00    +0.000 C 
ATOM     17  C30 UNK     0      -0.278   3.473   0.768  0.00  0.00    +0.000 C 
ATOM     18  C31 UNK     0       0.873   0.319  -1.101  0.00  0.00    +0.000 C 
ATOM     19  C32 UNK     0       0.961   1.571  -0.242  0.00  0.00    +0.000 C 
ATOM     20  C33 UNK     0       0.558   2.873  -2.929  0.00  0.00    +0.000 C 
ATOM     21  C34 UNK     0      -1.400   4.045  -2.088  0.00  0.00    +0.000 C 
ATOM     22  C35 UNK     0       1.999   1.545   0.861  0.00  0.00    +0.000 C 
ENDROOT
BRANCH   8  23
ATOM     23  O4  UNK     0      -1.952   1.502  -3.268  0.00  0.00    +0.000 OA
ATOM     24  H80 UNK     0      -2.271   0.598  -3.527  0.00  0.00    +0.000 HD
ENDBRANCH   8  23
BRANCH  17  25
ATOM     25  O7  UNK     0      -1.191   4.499   0.514  0.00  0.00    +0.000 OA
ATOM     26  H85 UNK     0      -1.207   5.085   1.316  0.00  0.00    +0.000 HD
ENDBRANCH  17  25
BRANCH   9  27
ATOM     27  O5  UNK     0      -1.942   1.680   4.319  0.00  0.00    +0.000 OA
ATOM     28  H81 UNK     0      -2.730   2.248   4.521  0.00  0.00    +0.000 HD
ENDBRANCH   9  27
BRANCH  18  29
ATOM     29  O8  UNK     0       1.078  -0.834  -0.277  0.00  0.00    +0.000 OA
BRANCH  29  30
ATOM     30  C39 UNK     0       1.518  -2.066  -0.781  0.00  0.00    +0.000 C 
ATOM     31  O11 UNK     0       1.542  -2.274  -2.025  0.00  0.00    +0.000 OA
BRANCH  30  32
ATOM     32  C41 UNK     0       2.050  -3.128   0.149  0.00  0.00    +0.000 C 
BRANCH  32  33
ATOM     33  O12 UNK     0       1.409  -3.094   1.400  0.00  0.00    +0.000 OA
ATOM     34  H95 UNK     0       1.528  -2.192   1.791  0.00  0.00    +0.000 HD
ENDBRANCH  32  33
BRANCH  32  35
ATOM     35  C44 UNK     0       3.591  -3.036   0.281  0.00  0.00    +0.000 C 
BRANCH  35  36
ATOM     36  C48 UNK     0       4.135  -4.168   1.131  0.00  0.00    +0.000 A 
ATOM     37  C50 UNK     0       4.696  -5.298   0.508  0.00  0.00    +0.000 A 
ATOM     38  C53 UNK     0       5.175  -6.366   1.273  0.00  0.00    +0.000 A 
ATOM     39  C54 UNK     0       5.090  -6.324   2.666  0.00  0.00    +0.000 A 
ATOM     40  C52 UNK     0       4.523  -5.215   3.297  0.00  0.00    +0.000 A 
ATOM     41  C49 UNK     0       4.044  -4.143   2.537  0.00  0.00    +0.000 A 
ENDBRANCH  35  36
BRANCH  35  42
ATOM     42  N15 UNK     0       4.016  -1.735   0.816  0.00  0.00    +0.000 N 
ATOM     43  C51 UNK     0       5.040  -0.932   0.217  0.00  0.00    +0.000 C 
ATOM     44  O14 UNK     0       5.622  -1.320  -0.832  0.00  0.00    +0.000 OA
ATOM     45  H97 UNK     0       3.609  -1.384   1.710  0.00  0.00    +0.000 HD
BRANCH  43  46
ATOM     46  O13 UNK     0       5.370   0.292   0.817  0.00  0.00    +0.000 OA
BRANCH  46  47
ATOM     47  C55 UNK     0       6.235   1.301   0.277  0.00  0.00    +0.000 C 
ATOM     48  C56 UNK     0       5.716   1.784  -1.091  0.00  0.00    +0.000 C 
ATOM     49  C57 UNK     0       6.221   2.483   1.257  0.00  0.00    +0.000 C 
ATOM     50  C58 UNK     0       7.677   0.773   0.157  0.00  0.00    +0.000 C 
ENDBRANCH  46  47
ENDBRANCH  43  46
ENDBRANCH  35  42
ENDBRANCH  32  35
ENDBRANCH  30  32
ENDBRANCH  29  30
ENDBRANCH  18  29
BRANCH   7  51
ATOM     51  O3  UNK     0      -3.671   0.696  -1.548  0.00  0.00    +0.000 OA
BRANCH  51  52
ATOM     52  C37 UNK     0      -4.691   1.325  -2.280  0.00  0.00    +0.000 C 
ATOM     53  O10 UNK     0      -4.731   2.584  -2.365  0.00  0.00    +0.000 OA
BRANCH  52  54
ATOM     54  C40 UNK     0      -5.727   0.505  -2.941  0.00  0.00    +0.000 A 
ATOM     55  C42 UNK     0      -6.869   1.103  -3.507  0.00  0.00    +0.000 A 
ATOM     56  C45 UNK     0      -7.848   0.317  -4.123  0.00  0.00    +0.000 A 
ATOM     57  C47 UNK     0      -7.699  -1.071  -4.180  0.00  0.00    +0.000 A 
ATOM     58  C46 UNK     0      -6.568  -1.675  -3.623  0.00  0.00    +0.000 A 
ATOM     59  C43 UNK     0      -5.586  -0.894  -3.007  0.00  0.00    +0.000 A 
ENDBRANCH  52  54
ENDBRANCH  51  52
ENDBRANCH   7  51
BRANCH   4  60
ATOM     60  O2  UNK     0      -2.999  -1.595   0.089  0.00  0.00    +0.000 OA
BRANCH  60  61
ATOM     61  C36 UNK     0      -1.944  -2.452   0.423  0.00  0.00    +0.000 C 
ATOM     62  C38 UNK     0      -1.646  -3.624  -0.451  0.00  0.00    +0.000 C 
ATOM     63  O9  UNK     0      -1.238  -2.233   1.443  0.00  0.00    +0.000 OA
ENDBRANCH  60  61
ENDBRANCH   4  60
TORSDOF 17
