REMARK  Name = C:\Users\Maximilian\Desktop\Conformers\converted_pdb\conformers_pdb\Docetaxel_conf_40.pdb
REMARK  25 active torsions:
REMARK  status: ('A' for Active; 'I' for Inactive)
REMARK    1  A    between atoms: C17_4  and  O2_58
REMARK    2  A    between atoms: C18_5  and  C29_16
REMARK    3  A    between atoms: C20_7  and  O3_47
REMARK    4  A    between atoms: C21_8  and  O4_45
REMARK    5  A    between atoms: C22_9  and  O5_62
REMARK    6  A    between atoms: C24_11  and  C33_20
REMARK    7  A    between atoms: C24_11  and  C34_21
REMARK    8  A    between atoms: C30_17  and  O7_56
REMARK    9  A    between atoms: C31_18  and  O8_23
REMARK   10  A    between atoms: C32_19  and  C35_22
REMARK   11  A    between atoms: O8_23  and  C39_24
REMARK   12  A    between atoms: C39_24  and  C41_26
REMARK   13  A    between atoms: C41_26  and  O12_27
REMARK   14  A    between atoms: C41_26  and  C44_29
REMARK   15  A    between atoms: C44_29  and  C48_30
REMARK   16  A    between atoms: C44_29  and  N15_36
REMARK   17  A    between atoms: C51_37  and  O13_40
REMARK   18  A    between atoms: O13_40  and  C55_41
REMARK   19  A    between atoms: C55_41  and  C56_42
REMARK   20  A    between atoms: C55_41  and  C57_43
REMARK   21  A    between atoms: C55_41  and  C58_44
REMARK   22  A    between atoms: O3_47  and  C37_48
REMARK   23  A    between atoms: C37_48  and  C40_50
REMARK   24  A    between atoms: O2_58  and  C36_59
REMARK   25  A    between atoms: C36_59  and  C38_60
REMARK                            x       y       z     vdW  Elec       q    Type
REMARK                         _______ _______ _______ _____ _____    ______ ____
ROOT
ATOM      1  O1  UNK     0      -4.292   2.823   1.479  0.00  0.00    +0.000 OA
ATOM      2  O6  UNK     0       0.013   3.082  -2.766  0.00  0.00    +0.000 OA
ATOM      3  C16 UNK     0      -2.183   1.095  -0.677  0.00  0.00    +0.000 C 
ATOM      4  C17 UNK     0      -2.759   1.527   0.755  0.00  0.00    +0.000 C 
ATOM      5  C18 UNK     0      -2.052   2.293  -1.766  0.00  0.00    +0.000 C 
ATOM      6  C19 UNK     0      -2.944   3.002   1.129  0.00  0.00    +0.000 C 
ATOM      7  C20 UNK     0      -2.835  -0.316  -1.137  0.00  0.00    +0.000 C 
ATOM      8  C21 UNK     0      -1.892  -1.556  -1.514  0.00  0.00    +0.000 C 
ATOM      9  C22 UNK     0      -1.829   3.662  -1.010  0.00  0.00    +0.000 C 
ATOM     10  C23 UNK     0      -2.911   3.997  -0.013  0.00  0.00    +0.000 C 
ATOM     11  C24 UNK     0      -1.253  -1.449  -2.938  0.00  0.00    +0.000 C 
ATOM     12  C25 UNK     0      -4.275   1.509   0.990  0.00  0.00    +0.000 C 
ATOM     13  C26 UNK     0      -0.808   2.172  -2.726  0.00  0.00    +0.000 C 
ATOM     14  C27 UNK     0      -0.781  -1.774  -0.425  0.00  0.00    +0.000 C 
ATOM     15  C28 UNK     0      -0.296  -0.255  -2.887  0.00  0.00    +0.000 C 
ATOM     16  C29 UNK     0      -3.335   2.412  -2.633  0.00  0.00    +0.000 C 
ATOM     17  C30 UNK     0      -0.503   1.033  -3.676  0.00  0.00    +0.000 C 
ATOM     18  C31 UNK     0       0.631  -1.185  -0.718  0.00  0.00    +0.000 C 
ATOM     19  C32 UNK     0       0.698  -0.273  -1.936  0.00  0.00    +0.000 C 
ATOM     20  C33 UNK     0      -0.428  -2.724  -3.301  0.00  0.00    +0.000 C 
ATOM     21  C34 UNK     0      -2.352  -1.424  -4.044  0.00  0.00    +0.000 C 
ATOM     22  C35 UNK     0       1.899   0.647  -2.003  0.00  0.00    +0.000 C 
ENDROOT
BRANCH   8  23
ATOM     23  O4  UNK     0      -2.702  -2.722  -1.553  0.00  0.00    +0.000 OA
ATOM     24  H80 UNK     0      -2.857  -3.060  -0.629  0.00  0.00    +0.000 HD
ENDBRANCH   8  23
BRANCH  17  25
ATOM     25  O7  UNK     0      -1.466   0.983  -4.689  0.00  0.00    +0.000 OA
ATOM     26  H85 UNK     0      -1.329   1.777  -5.264  0.00  0.00    +0.000 HD
ENDBRANCH  17  25
BRANCH   9  27
ATOM     27  O5  UNK     0      -1.754   4.731  -1.927  0.00  0.00    +0.000 OA
ATOM     28  H81 UNK     0      -1.218   5.455  -1.501  0.00  0.00    +0.000 HD
ENDBRANCH   9  27
BRANCH  18  29
ATOM     29  O8  UNK     0       1.112  -0.472   0.430  0.00  0.00    +0.000 OA
BRANCH  29  30
ATOM     30  C39 UNK     0       1.417  -1.073   1.654  0.00  0.00    +0.000 C 
ATOM     31  O11 UNK     0       1.180  -2.295   1.840  0.00  0.00    +0.000 OA
BRANCH  30  32
ATOM     32  C41 UNK     0       2.144  -0.287   2.716  0.00  0.00    +0.000 C 
BRANCH  32  33
ATOM     33  O12 UNK     0       1.678   1.041   2.775  0.00  0.00    +0.000 OA
ATOM     34  H95 UNK     0       1.773   1.453   1.879  0.00  0.00    +0.000 HD
ENDBRANCH  32  33
BRANCH  32  35
ATOM     35  C44 UNK     0       3.678  -0.378   2.511  0.00  0.00    +0.000 C 
BRANCH  35  36
ATOM     36  C48 UNK     0       4.442   0.342   3.604  0.00  0.00    +0.000 A 
ATOM     37  C50 UNK     0       4.485   1.750   3.661  0.00  0.00    +0.000 A 
ATOM     38  C53 UNK     0       5.205   2.399   4.669  0.00  0.00    +0.000 A 
ATOM     39  C54 UNK     0       5.895   1.653   5.629  0.00  0.00    +0.000 A 
ATOM     40  C52 UNK     0       5.849   0.258   5.591  0.00  0.00    +0.000 A 
ATOM     41  C49 UNK     0       5.121  -0.397   4.591  0.00  0.00    +0.000 A 
ENDBRANCH  35  36
BRANCH  35  42
ATOM     42  N15 UNK     0       4.081   0.129   1.193  0.00  0.00    +0.000 N 
ATOM     43  C51 UNK     0       4.915  -0.609   0.292  0.00  0.00    +0.000 C 
ATOM     44  O14 UNK     0       5.308  -1.767   0.588  0.00  0.00    +0.000 OA
ATOM     45  H97 UNK     0       3.814   1.100   0.913  0.00  0.00    +0.000 HD
BRANCH  43  46
ATOM     46  O13 UNK     0       5.262  -0.022  -0.934  0.00  0.00    +0.000 OA
BRANCH  46  47
ATOM     47  C55 UNK     0       5.928  -0.669  -2.029  0.00  0.00    +0.000 C 
ATOM     48  C56 UNK     0       6.025   0.352  -3.177  0.00  0.00    +0.000 C 
ATOM     49  C57 UNK     0       7.353  -1.096  -1.626  0.00  0.00    +0.000 C 
ATOM     50  C58 UNK     0       5.109  -1.885  -2.511  0.00  0.00    +0.000 C 
ENDBRANCH  46  47
ENDBRANCH  43  46
ENDBRANCH  35  42
ENDBRANCH  32  35
ENDBRANCH  30  32
ENDBRANCH  29  30
ENDBRANCH  18  29
BRANCH   7  51
ATOM     51  O3  UNK     0      -3.698  -0.811  -0.104  0.00  0.00    +0.000 OA
BRANCH  51  52
ATOM     52  C37 UNK     0      -4.965  -1.379  -0.313  0.00  0.00    +0.000 C 
ATOM     53  O10 UNK     0      -5.485  -1.378  -1.463  0.00  0.00    +0.000 OA
BRANCH  52  54
ATOM     54  C40 UNK     0      -5.684  -1.980   0.829  0.00  0.00    +0.000 A 
ATOM     55  C42 UNK     0      -5.040  -2.119   2.072  0.00  0.00    +0.000 A 
ATOM     56  C45 UNK     0      -5.713  -2.686   3.156  0.00  0.00    +0.000 A 
ATOM     57  C47 UNK     0      -7.028  -3.136   3.012  0.00  0.00    +0.000 A 
ATOM     58  C46 UNK     0      -7.674  -3.012   1.782  0.00  0.00    +0.000 A 
ATOM     59  C43 UNK     0      -7.013  -2.425   0.695  0.00  0.00    +0.000 A 
ENDBRANCH  52  54
ENDBRANCH  51  52
ENDBRANCH   7  51
BRANCH   4  60
ATOM     60  O2  UNK     0      -2.049   0.788   1.774  0.00  0.00    +0.000 OA
BRANCH  60  61
ATOM     61  C36 UNK     0      -2.270   0.785   3.162  0.00  0.00    +0.000 C 
ATOM     62  C38 UNK     0      -1.497  -0.155   4.023  0.00  0.00    +0.000 C 
ATOM     63  O9  UNK     0      -3.101   1.564   3.703  0.00  0.00    +0.000 OA
ENDBRANCH  60  61
ENDBRANCH   4  60
TORSDOF 17
