REMARK  Name = C:\Users\Maximilian\Desktop\Conformers\converted_pdb\conformers_pdb\Docetaxel_conf_6.pdb
REMARK  25 active torsions:
REMARK  status: ('A' for Active; 'I' for Inactive)
REMARK    1  A    between atoms: C17_4  and  O2_58
REMARK    2  A    between atoms: C18_5  and  C29_16
REMARK    3  A    between atoms: C20_7  and  O3_47
REMARK    4  A    between atoms: C21_8  and  O4_45
REMARK    5  A    between atoms: C22_9  and  O5_62
REMARK    6  A    between atoms: C24_11  and  C33_20
REMARK    7  A    between atoms: C24_11  and  C34_21
REMARK    8  A    between atoms: C30_17  and  O7_56
REMARK    9  A    between atoms: C31_18  and  O8_23
REMARK   10  A    between atoms: C32_19  and  C35_22
REMARK   11  A    between atoms: O8_23  and  C39_24
REMARK   12  A    between atoms: C39_24  and  C41_26
REMARK   13  A    between atoms: C41_26  and  O12_27
REMARK   14  A    between atoms: C41_26  and  C44_29
REMARK   15  A    between atoms: C44_29  and  C48_30
REMARK   16  A    between atoms: C44_29  and  N15_36
REMARK   17  A    between atoms: C51_37  and  O13_40
REMARK   18  A    between atoms: O13_40  and  C55_41
REMARK   19  A    between atoms: C55_41  and  C56_42
REMARK   20  A    between atoms: C55_41  and  C57_43
REMARK   21  A    between atoms: C55_41  and  C58_44
REMARK   22  A    between atoms: O3_47  and  C37_48
REMARK   23  A    between atoms: C37_48  and  C40_50
REMARK   24  A    between atoms: O2_58  and  C36_59
REMARK   25  A    between atoms: C36_59  and  C38_60
REMARK                            x       y       z     vdW  Elec       q    Type
REMARK                         _______ _______ _______ _____ _____    ______ ____
ROOT
ATOM      1  O1  UNK     0      -3.405   0.032  -3.205  0.00  0.00    +0.000 OA
ATOM      2  O6  UNK     0       0.622  -3.044  -1.334  0.00  0.00    +0.000 OA
ATOM      3  C16 UNK     0      -1.975  -0.985  -0.375  0.00  0.00    +0.000 C 
ATOM      4  C17 UNK     0      -2.478   0.181  -1.309  0.00  0.00    +0.000 C 
ATOM      5  C18 UNK     0      -1.704  -2.443  -1.042  0.00  0.00    +0.000 C 
ATOM      6  C19 UNK     0      -2.069   0.149  -2.765  0.00  0.00    +0.000 C 
ATOM      7  C20 UNK     0      -2.735  -0.961   1.039  0.00  0.00    +0.000 C 
ATOM      8  C21 UNK     0      -1.918  -0.621   2.375  0.00  0.00    +0.000 C 
ATOM      9  C22 UNK     0      -1.660  -2.380  -2.639  0.00  0.00    +0.000 C 
ATOM     10  C23 UNK     0      -1.200  -1.030  -3.193  0.00  0.00    +0.000 C 
ATOM     11  C24 UNK     0      -1.049  -1.828   2.891  0.00  0.00    +0.000 C 
ATOM     12  C25 UNK     0      -3.875   0.050  -1.876  0.00  0.00    +0.000 C 
ATOM     13  C26 UNK     0      -0.311  -2.979  -0.538  0.00  0.00    +0.000 C 
ATOM     14  C27 UNK     0      -1.011   0.645   2.221  0.00  0.00    +0.000 C 
ATOM     15  C28 UNK     0       0.013  -2.086   1.808  0.00  0.00    +0.000 C 
ATOM     16  C29 UNK     0      -2.795  -3.496  -0.689  0.00  0.00    +0.000 C 
ATOM     17  C30 UNK     0       0.064  -3.333   0.903  0.00  0.00    +0.000 C 
ATOM     18  C31 UNK     0       0.450   0.416   1.740  0.00  0.00    +0.000 C 
ATOM     19  C32 UNK     0       0.855  -1.043   1.509  0.00  0.00    +0.000 C 
ATOM     20  C33 UNK     0      -0.303  -1.474   4.228  0.00  0.00    +0.000 C 
ATOM     21  C34 UNK     0      -1.940  -3.043   3.308  0.00  0.00    +0.000 C 
ATOM     22  C35 UNK     0       2.208  -1.267   0.871  0.00  0.00    +0.000 C 
ENDROOT
BRANCH   8  23
ATOM     23  O4  UNK     0      -2.857  -0.352   3.401  0.00  0.00    +0.000 OA
ATOM     24  H80 UNK     0      -3.276   0.537   3.249  0.00  0.00    +0.000 HD
ENDBRANCH   8  23
BRANCH  17  25
ATOM     25  O7  UNK     0      -0.688  -4.423   1.355  0.00  0.00    +0.000 OA
ATOM     26  H85 UNK     0      -0.150  -4.902   2.037  0.00  0.00    +0.000 HD
ENDBRANCH  17  25
BRANCH   9  27
ATOM     27  O5  UNK     0      -2.818  -2.850  -3.295  0.00  0.00    +0.000 OA
ATOM     28  H81 UNK     0      -3.607  -2.317  -3.041  0.00  0.00    +0.000 HD
ENDBRANCH   9  27
BRANCH  18  29
ATOM     29  O8  UNK     0       0.644   1.140   0.520  0.00  0.00    +0.000 OA
BRANCH  29  30
ATOM     30  C39 UNK     0       1.616   2.124   0.330  0.00  0.00    +0.000 C 
ATOM     31  O11 UNK     0       2.167   2.675   1.322  0.00  0.00    +0.000 OA
BRANCH  30  32
ATOM     32  C41 UNK     0       1.985   2.580  -1.064  0.00  0.00    +0.000 C 
BRANCH  32  33
ATOM     33  O12 UNK     0       1.219   1.916  -2.040  0.00  0.00    +0.000 OA
ATOM     34  H95 UNK     0       1.350   0.940  -1.923  0.00  0.00    +0.000 HD
ENDBRANCH  32  33
BRANCH  32  35
ATOM     35  C44 UNK     0       3.516   2.442  -1.309  0.00  0.00    +0.000 C 
BRANCH  35  36
ATOM     36  C48 UNK     0       3.952   2.990  -2.658  0.00  0.00    +0.000 A 
ATOM     37  C50 UNK     0       4.706   4.178  -2.719  0.00  0.00    +0.000 A 
ATOM     38  C53 UNK     0       5.164   4.668  -3.945  0.00  0.00    +0.000 A 
ATOM     39  C54 UNK     0       4.877   3.982  -5.126  0.00  0.00    +0.000 A 
ATOM     40  C52 UNK     0       4.120   2.807  -5.084  0.00  0.00    +0.000 A 
ATOM     41  C49 UNK     0       3.659   2.309  -3.858  0.00  0.00    +0.000 A 
ENDBRANCH  35  36
BRANCH  35  42
ATOM     42  N15 UNK     0       3.963   1.052  -1.156  0.00  0.00    +0.000 N 
ATOM     43  C51 UNK     0       5.066   0.668  -0.319  0.00  0.00    +0.000 C 
ATOM     44  O14 UNK     0       5.707   1.539   0.328  0.00  0.00    +0.000 OA
ATOM     45  H97 UNK     0       3.522   0.292  -1.726  0.00  0.00    +0.000 HD
BRANCH  43  46
ATOM     46  O13 UNK     0       5.371  -0.698  -0.199  0.00  0.00    +0.000 OA
BRANCH  46  47
ATOM     47  C55 UNK     0       6.346  -1.283   0.680  0.00  0.00    +0.000 C 
ATOM     48  C56 UNK     0       6.314  -2.800   0.448  0.00  0.00    +0.000 C 
ATOM     49  C57 UNK     0       7.759  -0.756   0.357  0.00  0.00    +0.000 C 
ATOM     50  C58 UNK     0       5.984  -0.999   2.148  0.00  0.00    +0.000 C 
ENDBRANCH  46  47
ENDBRANCH  43  46
ENDBRANCH  35  42
ENDBRANCH  32  35
ENDBRANCH  30  32
ENDBRANCH  29  30
ENDBRANCH  18  29
BRANCH   7  51
ATOM     51  O3  UNK     0      -3.876  -0.092   0.975  0.00  0.00    +0.000 OA
BRANCH  51  52
ATOM     52  C37 UNK     0      -5.172  -0.468   1.373  0.00  0.00    +0.000 C 
ATOM     53  O10 UNK     0      -5.416  -1.658   1.705  0.00  0.00    +0.000 OA
BRANCH  52  54
ATOM     54  C40 UNK     0      -6.252   0.534   1.415  0.00  0.00    +0.000 A 
ATOM     55  C42 UNK     0      -5.999   1.866   1.038  0.00  0.00    +0.000 A 
ATOM     56  C45 UNK     0      -7.020   2.821   1.098  0.00  0.00    +0.000 A 
ATOM     57  C47 UNK     0      -8.294   2.463   1.554  0.00  0.00    +0.000 A 
ATOM     58  C46 UNK     0      -8.552   1.146   1.939  0.00  0.00    +0.000 A 
ATOM     59  C43 UNK     0      -7.535   0.188   1.878  0.00  0.00    +0.000 A 
ENDBRANCH  52  54
ENDBRANCH  51  52
ENDBRANCH   7  51
BRANCH   4  60
ATOM     60  O2  UNK     0      -2.247   1.456  -0.683  0.00  0.00    +0.000 OA
BRANCH  60  61
ATOM     61  C36 UNK     0      -2.596   2.732  -1.145  0.00  0.00    +0.000 C 
ATOM     62  C38 UNK     0      -2.365   3.905  -0.260  0.00  0.00    +0.000 C 
ATOM     63  O9  UNK     0      -3.058   2.912  -2.298  0.00  0.00    +0.000 OA
ENDBRANCH  60  61
ENDBRANCH   4  60
TORSDOF 17
