REMARK  Name = C:\Users\Maximilian\Desktop\Conformers\converted_pdb\conformers_pdb\Docetaxel_conf_65.pdb
REMARK  25 active torsions:
REMARK  status: ('A' for Active; 'I' for Inactive)
REMARK    1  A    between atoms: C17_4  and  O2_58
REMARK    2  A    between atoms: C18_5  and  C29_16
REMARK    3  A    between atoms: C20_7  and  O3_47
REMARK    4  A    between atoms: C21_8  and  O4_45
REMARK    5  A    between atoms: C22_9  and  O5_62
REMARK    6  A    between atoms: C24_11  and  C33_20
REMARK    7  A    between atoms: C24_11  and  C34_21
REMARK    8  A    between atoms: C30_17  and  O7_56
REMARK    9  A    between atoms: C31_18  and  O8_23
REMARK   10  A    between atoms: C32_19  and  C35_22
REMARK   11  A    between atoms: O8_23  and  C39_24
REMARK   12  A    between atoms: C39_24  and  C41_26
REMARK   13  A    between atoms: C41_26  and  O12_27
REMARK   14  A    between atoms: C41_26  and  C44_29
REMARK   15  A    between atoms: C44_29  and  C48_30
REMARK   16  A    between atoms: C44_29  and  N15_36
REMARK   17  A    between atoms: C51_37  and  O13_40
REMARK   18  A    between atoms: O13_40  and  C55_41
REMARK   19  A    between atoms: C55_41  and  C56_42
REMARK   20  A    between atoms: C55_41  and  C57_43
REMARK   21  A    between atoms: C55_41  and  C58_44
REMARK   22  A    between atoms: O3_47  and  C37_48
REMARK   23  A    between atoms: C37_48  and  C40_50
REMARK   24  A    between atoms: O2_58  and  C36_59
REMARK   25  A    between atoms: C36_59  and  C38_60
REMARK                            x       y       z     vdW  Elec       q    Type
REMARK                         _______ _______ _______ _____ _____    ______ ____
ROOT
ATOM      1  O1  UNK     0      -7.055   1.246   0.450  0.00  0.00    +0.000 OA
ATOM      2  O6  UNK     0      -2.241  -1.999   1.395  0.00  0.00    +0.000 OA
ATOM      3  C16 UNK     0      -3.809   0.621   0.139  0.00  0.00    +0.000 C 
ATOM      4  C17 UNK     0      -5.113   1.290  -0.408  0.00  0.00    +0.000 C 
ATOM      5  C18 UNK     0      -3.997  -0.390   1.384  0.00  0.00    +0.000 C 
ATOM      6  C19 UNK     0      -6.336   0.359  -0.383  0.00  0.00    +0.000 C 
ATOM      7  C20 UNK     0      -2.392   1.188  -0.364  0.00  0.00    +0.000 C 
ATOM      8  C21 UNK     0      -1.556   2.374   0.320  0.00  0.00    +0.000 C 
ATOM      9  C22 UNK     0      -4.882  -1.564   0.811  0.00  0.00    +0.000 C 
ATOM     10  C23 UNK     0      -6.255  -1.069   0.257  0.00  0.00    +0.000 C 
ATOM     11  C24 UNK     0      -1.390   2.281   1.872  0.00  0.00    +0.000 C 
ATOM     12  C25 UNK     0      -5.975   2.155   0.498  0.00  0.00    +0.000 C 
ATOM     13  C26 UNK     0      -2.628  -0.938   1.861  0.00  0.00    +0.000 C 
ATOM     14  C27 UNK     0      -0.117   2.384  -0.297  0.00  0.00    +0.000 C 
ATOM     15  C28 UNK     0      -0.850   0.859   2.135  0.00  0.00    +0.000 C 
ATOM     16  C29 UNK     0      -4.796   0.089   2.649  0.00  0.00    +0.000 C 
ATOM     17  C30 UNK     0      -1.672  -0.235   2.836  0.00  0.00    +0.000 C 
ATOM     18  C31 UNK     0       0.889   1.367   0.340  0.00  0.00    +0.000 C 
ATOM     19  C32 UNK     0       0.311   0.510   1.480  0.00  0.00    +0.000 C 
ATOM     20  C33 UNK     0      -0.364   3.312   2.460  0.00  0.00    +0.000 C 
ATOM     21  C34 UNK     0      -2.711   2.721   2.540  0.00  0.00    +0.000 C 
ATOM     22  C35 UNK     0       1.169  -0.638   1.969  0.00  0.00    +0.000 C 
ENDROOT
BRANCH   8  23
ATOM     23  O4  UNK     0      -2.184   3.606   0.015  0.00  0.00    +0.000 OA
ATOM     24  H80 UNK     0      -2.082   3.790  -0.956  0.00  0.00    +0.000 HD
ENDBRANCH   8  23
BRANCH  17  25
ATOM     25  O7  UNK     0      -2.324   0.227   3.982  0.00  0.00    +0.000 OA
ATOM     26  H85 UNK     0      -1.619   0.504   4.625  0.00  0.00    +0.000 HD
ENDBRANCH  17  25
BRANCH   9  27
ATOM     27  O5  UNK     0      -5.094  -2.555   1.789  0.00  0.00    +0.000 OA
ATOM     28  H81 UNK     0      -5.478  -3.345   1.325  0.00  0.00    +0.000 HD
ENDBRANCH   9  27
BRANCH  18  29
ATOM     29  O8  UNK     0       1.438   0.524  -0.678  0.00  0.00    +0.000 OA
BRANCH  29  30
ATOM     30  C39 UNK     0       2.317   0.998  -1.664  0.00  0.00    +0.000 C 
ATOM     31  O11 UNK     0       2.582   2.230  -1.741  0.00  0.00    +0.000 OA
BRANCH  30  32
ATOM     32  C41 UNK     0       3.021   0.044  -2.592  0.00  0.00    +0.000 C 
BRANCH  32  33
ATOM     33  O12 UNK     0       2.237  -1.095  -2.840  0.00  0.00    +0.000 OA
ATOM     34  H95 UNK     0       2.135  -1.585  -1.989  0.00  0.00    +0.000 HD
ENDBRANCH  32  33
BRANCH  32  35
ATOM     35  C44 UNK     0       4.432  -0.309  -2.058  0.00  0.00    +0.000 C 
BRANCH  35  36
ATOM     36  C48 UNK     0       5.159  -1.265  -2.986  0.00  0.00    +0.000 A 
ATOM     37  C50 UNK     0       6.088  -0.761  -3.915  0.00  0.00    +0.000 A 
ATOM     38  C53 UNK     0       6.757  -1.623  -4.789  0.00  0.00    +0.000 A 
ATOM     39  C54 UNK     0       6.502  -2.995  -4.752  0.00  0.00    +0.000 A 
ATOM     40  C52 UNK     0       5.568  -3.506  -3.847  0.00  0.00    +0.000 A 
ATOM     41  C49 UNK     0       4.892  -2.648  -2.974  0.00  0.00    +0.000 A 
ENDBRANCH  35  36
BRANCH  35  42
ATOM     42  N15 UNK     0       4.377  -0.847  -0.690  0.00  0.00    +0.000 N 
ATOM     43  C51 UNK     0       5.080  -0.261   0.413  0.00  0.00    +0.000 C 
ATOM     44  O14 UNK     0       5.886   0.689   0.221  0.00  0.00    +0.000 OA
ATOM     45  H97 UNK     0       3.784  -1.680  -0.482  0.00  0.00    +0.000 HD
BRANCH  43  46
ATOM     46  O13 UNK     0       4.852  -0.762   1.701  0.00  0.00    +0.000 OA
BRANCH  46  47
ATOM     47  C55 UNK     0       5.405  -0.248   2.921  0.00  0.00    +0.000 C 
ATOM     48  C56 UNK     0       4.817  -1.080   4.069  0.00  0.00    +0.000 C 
ATOM     49  C57 UNK     0       6.938  -0.405   2.926  0.00  0.00    +0.000 C 
ATOM     50  C58 UNK     0       5.002   1.225   3.124  0.00  0.00    +0.000 C 
ENDBRANCH  46  47
ENDBRANCH  43  46
ENDBRANCH  35  42
ENDBRANCH  32  35
ENDBRANCH  30  32
ENDBRANCH  29  30
ENDBRANCH  18  29
BRANCH   7  51
ATOM     51  O3  UNK     0      -1.540   0.071  -0.701  0.00  0.00    +0.000 OA
BRANCH  51  52
ATOM     52  C37 UNK     0      -1.566  -0.570  -1.959  0.00  0.00    +0.000 C 
ATOM     53  O10 UNK     0      -2.208  -0.056  -2.916  0.00  0.00    +0.000 OA
BRANCH  52  54
ATOM     54  C40 UNK     0      -0.869  -1.859  -2.171  0.00  0.00    +0.000 A 
ATOM     55  C42 UNK     0      -0.249  -2.516  -1.098  0.00  0.00    +0.000 A 
ATOM     56  C45 UNK     0       0.400  -3.739  -1.290  0.00  0.00    +0.000 A 
ATOM     57  C47 UNK     0       0.443  -4.316  -2.560  0.00  0.00    +0.000 A 
ATOM     58  C46 UNK     0      -0.169  -3.673  -3.638  0.00  0.00    +0.000 A 
ATOM     59  C43 UNK     0      -0.822  -2.450  -3.447  0.00  0.00    +0.000 A 
ENDBRANCH  52  54
ENDBRANCH  51  52
ENDBRANCH   7  51
BRANCH   4  60
ATOM     60  O2  UNK     0      -4.895   1.879  -1.709  0.00  0.00    +0.000 OA
BRANCH  60  61
ATOM     61  C36 UNK     0      -5.826   2.501  -2.559  0.00  0.00    +0.000 C 
ATOM     62  C38 UNK     0      -5.369   3.012  -3.882  0.00  0.00    +0.000 C 
ATOM     63  O9  UNK     0      -7.043   2.609  -2.244  0.00  0.00    +0.000 OA
ENDBRANCH  60  61
ENDBRANCH   4  60
TORSDOF 17
