REMARK  Name = C:\Users\Maximilian\Desktop\Conformers\converted_pdb\conformers_pdb\Docetaxel_conf_19.pdb
REMARK  25 active torsions:
REMARK  status: ('A' for Active; 'I' for Inactive)
REMARK    1  A    between atoms: C17_4  and  O2_58
REMARK    2  A    between atoms: C18_5  and  C29_16
REMARK    3  A    between atoms: C20_7  and  O3_47
REMARK    4  A    between atoms: C21_8  and  O4_45
REMARK    5  A    between atoms: C22_9  and  O5_62
REMARK    6  A    between atoms: C24_11  and  C33_20
REMARK    7  A    between atoms: C24_11  and  C34_21
REMARK    8  A    between atoms: C30_17  and  O7_56
REMARK    9  A    between atoms: C31_18  and  O8_23
REMARK   10  A    between atoms: C32_19  and  C35_22
REMARK   11  A    between atoms: O8_23  and  C39_24
REMARK   12  A    between atoms: C39_24  and  C41_26
REMARK   13  A    between atoms: C41_26  and  O12_27
REMARK   14  A    between atoms: C41_26  and  C44_29
REMARK   15  A    between atoms: C44_29  and  C48_30
REMARK   16  A    between atoms: C44_29  and  N15_36
REMARK   17  A    between atoms: C51_37  and  O13_40
REMARK   18  A    between atoms: O13_40  and  C55_41
REMARK   19  A    between atoms: C55_41  and  C56_42
REMARK   20  A    between atoms: C55_41  and  C57_43
REMARK   21  A    between atoms: C55_41  and  C58_44
REMARK   22  A    between atoms: O3_47  and  C37_48
REMARK   23  A    between atoms: C37_48  and  C40_50
REMARK   24  A    between atoms: O2_58  and  C36_59
REMARK   25  A    between atoms: C36_59  and  C38_60
REMARK                            x       y       z     vdW  Elec       q    Type
REMARK                         _______ _______ _______ _____ _____    ______ ____
ROOT
ATOM      1  O1  UNK     0      -5.620  -2.173   0.459  0.00  0.00    +0.000 OA
ATOM      2  O6  UNK     0      -1.696  -0.045   4.533  0.00  0.00    +0.000 OA
ATOM      3  C16 UNK     0      -3.026   0.016   1.173  0.00  0.00    +0.000 C 
ATOM      4  C17 UNK     0      -3.734  -1.184   0.385  0.00  0.00    +0.000 C 
ATOM      5  C18 UNK     0      -3.348   0.053   2.763  0.00  0.00    +0.000 C 
ATOM      6  C19 UNK     0      -4.389  -2.363   1.108  0.00  0.00    +0.000 C 
ATOM      7  C20 UNK     0      -3.134   1.388   0.318  0.00  0.00    +0.000 C 
ATOM      8  C21 UNK     0      -1.810   2.211  -0.075  0.00  0.00    +0.000 C 
ATOM      9  C22 UNK     0      -3.529  -1.428   3.285  0.00  0.00    +0.000 C 
ATOM     10  C23 UNK     0      -4.631  -2.209   2.601  0.00  0.00    +0.000 C 
ATOM     11  C24 UNK     0      -1.305   3.139   1.084  0.00  0.00    +0.000 C 
ATOM     12  C25 UNK     0      -5.160  -0.990  -0.126  0.00  0.00    +0.000 C 
ATOM     13  C26 UNK     0      -2.183   0.640   3.642  0.00  0.00    +0.000 C 
ATOM     14  C27 UNK     0      -0.660   1.242  -0.554  0.00  0.00    +0.000 C 
ATOM     15  C28 UNK     0      -0.858   2.174   2.200  0.00  0.00    +0.000 C 
ATOM     16  C29 UNK     0      -4.645   0.846   3.087  0.00  0.00    +0.000 C 
ATOM     17  C30 UNK     0      -1.577   2.021   3.538  0.00  0.00    +0.000 C 
ATOM     18  C31 UNK     0       0.521   1.028   0.435  0.00  0.00    +0.000 C 
ATOM     19  C32 UNK     0       0.128   1.263   1.885  0.00  0.00    +0.000 C 
ATOM     20  C33 UNK     0      -0.069   4.008   0.637  0.00  0.00    +0.000 C 
ATOM     21  C34 UNK     0      -2.381   4.210   1.465  0.00  0.00    +0.000 C 
ATOM     22  C35 UNK     0       0.867   0.449   2.937  0.00  0.00    +0.000 C 
ENDROOT
BRANCH   8  23
ATOM     23  O4  UNK     0      -2.121   3.086  -1.146  0.00  0.00    +0.000 OA
ATOM     24  H80 UNK     0      -2.193   2.565  -1.989  0.00  0.00    +0.000 HD
ENDBRANCH   8  23
BRANCH  17  25
ATOM     25  O7  UNK     0      -2.563   2.972   3.816  0.00  0.00    +0.000 OA
ATOM     26  H85 UNK     0      -2.137   3.722   4.306  0.00  0.00    +0.000 HD
ENDBRANCH  17  25
BRANCH   9  27
ATOM     27  O5  UNK     0      -3.809  -1.442   4.669  0.00  0.00    +0.000 OA
ATOM     28  H81 UNK     0      -3.453  -2.302   5.025  0.00  0.00    +0.000 HD
ENDBRANCH   9  27
BRANCH  18  29
ATOM     29  O8  UNK     0       1.043  -0.296   0.277  0.00  0.00    +0.000 OA
BRANCH  29  30
ATOM     30  C39 UNK     0       1.764  -0.722  -0.843  0.00  0.00    +0.000 C 
ATOM     31  O11 UNK     0       1.885   0.029  -1.846  0.00  0.00    +0.000 OA
BRANCH  30  32
ATOM     32  C41 UNK     0       2.405  -2.089  -0.852  0.00  0.00    +0.000 C 
BRANCH  32  33
ATOM     33  O12 UNK     0       1.677  -2.992  -0.060  0.00  0.00    +0.000 OA
ATOM     34  H95 UNK     0       1.697  -2.663   0.877  0.00  0.00    +0.000 HD
ENDBRANCH  32  33
BRANCH  32  35
ATOM     35  C44 UNK     0       3.904  -2.090  -0.453  0.00  0.00    +0.000 C 
BRANCH  35  36
ATOM     36  C48 UNK     0       4.164  -1.515   0.928  0.00  0.00    +0.000 A 
ATOM     37  C50 UNK     0       4.362  -0.133   1.124  0.00  0.00    +0.000 A 
ATOM     38  C53 UNK     0       4.623   0.374   2.401  0.00  0.00    +0.000 A 
ATOM     39  C54 UNK     0       4.677  -0.489   3.500  0.00  0.00    +0.000 A 
ATOM     40  C52 UNK     0       4.462  -1.859   3.320  0.00  0.00    +0.000 A 
ATOM     41  C49 UNK     0       4.214  -2.370   2.043  0.00  0.00    +0.000 A 
ENDBRANCH  35  36
BRANCH  35  42
ATOM     42  N15 UNK     0       4.720  -1.402  -1.461  0.00  0.00    +0.000 N 
ATOM     43  C51 UNK     0       6.044  -1.830  -1.799  0.00  0.00    +0.000 C 
ATOM     44  O14 UNK     0       6.406  -3.016  -1.554  0.00  0.00    +0.000 OA
ATOM     45  H97 UNK     0       4.426  -0.458  -1.803  0.00  0.00    +0.000 HD
BRANCH  43  46
ATOM     46  O13 UNK     0       6.910  -0.919  -2.423  0.00  0.00    +0.000 OA
BRANCH  46  47
ATOM     47  C55 UNK     0       8.249  -1.185  -2.865  0.00  0.00    +0.000 C 
ATOM     48  C56 UNK     0       9.136  -1.633  -1.688  0.00  0.00    +0.000 C 
ATOM     49  C57 UNK     0       8.239  -2.254  -3.972  0.00  0.00    +0.000 C 
ATOM     50  C58 UNK     0       8.806   0.130  -3.439  0.00  0.00    +0.000 C 
ENDBRANCH  46  47
ENDBRANCH  43  46
ENDBRANCH  35  42
ENDBRANCH  32  35
ENDBRANCH  30  32
ENDBRANCH  29  30
ENDBRANCH  18  29
BRANCH   7  51
ATOM     51  O3  UNK     0      -3.826   1.145  -0.912  0.00  0.00    +0.000 OA
BRANCH  51  52
ATOM     52  C37 UNK     0      -4.831   1.972  -1.447  0.00  0.00    +0.000 C 
ATOM     53  O10 UNK     0      -5.232   2.978  -0.805  0.00  0.00    +0.000 OA
BRANCH  52  54
ATOM     54  C40 UNK     0      -5.441   1.634  -2.748  0.00  0.00    +0.000 A 
ATOM     55  C42 UNK     0      -4.856   0.655  -3.572  0.00  0.00    +0.000 A 
ATOM     56  C45 UNK     0      -5.427   0.343  -4.813  0.00  0.00    +0.000 A 
ATOM     57  C47 UNK     0      -6.591   0.993  -5.231  0.00  0.00    +0.000 A 
ATOM     58  C46 UNK     0      -7.179   1.966  -4.421  0.00  0.00    +0.000 A 
ATOM     59  C43 UNK     0      -6.607   2.290  -3.186  0.00  0.00    +0.000 A 
ENDBRANCH  52  54
ENDBRANCH  51  52
ENDBRANCH   7  51
BRANCH   4  60
ATOM     60  O2  UNK     0      -2.929  -1.643  -0.707  0.00  0.00    +0.000 OA
BRANCH  60  61
ATOM     61  C36 UNK     0      -1.769  -2.419  -0.574  0.00  0.00    +0.000 C 
ATOM     62  C38 UNK     0      -1.064  -2.890  -1.804  0.00  0.00    +0.000 C 
ATOM     63  O9  UNK     0      -1.298  -2.696   0.566  0.00  0.00    +0.000 OA
ENDBRANCH  60  61
ENDBRANCH   4  60
TORSDOF 17
