REMARK  Name = C:\Users\Maximilian\Desktop\Conformers\converted_pdb\conformers_pdb\Docetaxel_conf_39.pdb
REMARK  25 active torsions:
REMARK  status: ('A' for Active; 'I' for Inactive)
REMARK    1  A    between atoms: C17_4  and  O2_58
REMARK    2  A    between atoms: C18_5  and  C29_16
REMARK    3  A    between atoms: C20_7  and  O3_47
REMARK    4  A    between atoms: C21_8  and  O4_45
REMARK    5  A    between atoms: C22_9  and  O5_62
REMARK    6  A    between atoms: C24_11  and  C33_20
REMARK    7  A    between atoms: C24_11  and  C34_21
REMARK    8  A    between atoms: C30_17  and  O7_56
REMARK    9  A    between atoms: C31_18  and  O8_23
REMARK   10  A    between atoms: C32_19  and  C35_22
REMARK   11  A    between atoms: O8_23  and  C39_24
REMARK   12  A    between atoms: C39_24  and  C41_26
REMARK   13  A    between atoms: C41_26  and  O12_27
REMARK   14  A    between atoms: C41_26  and  C44_29
REMARK   15  A    between atoms: C44_29  and  C48_30
REMARK   16  A    between atoms: C44_29  and  N15_36
REMARK   17  A    between atoms: C51_37  and  O13_40
REMARK   18  A    between atoms: O13_40  and  C55_41
REMARK   19  A    between atoms: C55_41  and  C56_42
REMARK   20  A    between atoms: C55_41  and  C57_43
REMARK   21  A    between atoms: C55_41  and  C58_44
REMARK   22  A    between atoms: O3_47  and  C37_48
REMARK   23  A    between atoms: C37_48  and  C40_50
REMARK   24  A    between atoms: O2_58  and  C36_59
REMARK   25  A    between atoms: C36_59  and  C38_60
REMARK                            x       y       z     vdW  Elec       q    Type
REMARK                         _______ _______ _______ _____ _____    ______ ____
ROOT
ATOM      1  O1  UNK     0      -4.408  -3.006  -2.959  0.00  0.00    +0.000 OA
ATOM      2  O6  UNK     0      -0.014  -2.749   0.902  0.00  0.00    +0.000 OA
ATOM      3  C16 UNK     0      -2.918  -1.307  -0.248  0.00  0.00    +0.000 C 
ATOM      4  C17 UNK     0      -4.075  -1.613  -1.354  0.00  0.00    +0.000 C 
ATOM      5  C18 UNK     0      -2.412  -2.680   0.380  0.00  0.00    +0.000 C 
ATOM      6  C19 UNK     0      -3.400  -2.090  -2.637  0.00  0.00    +0.000 C 
ATOM      7  C20 UNK     0      -3.241   0.047   0.556  0.00  0.00    +0.000 C 
ATOM      8  C21 UNK     0      -2.204   0.689   1.588  0.00  0.00    +0.000 C 
ATOM      9  C22 UNK     0      -1.928  -3.534  -0.922  0.00  0.00    +0.000 C 
ATOM     10  C23 UNK     0      -2.136  -2.924  -2.367  0.00  0.00    +0.000 C 
ATOM     11  C24 UNK     0      -2.166   0.025   3.062  0.00  0.00    +0.000 C 
ATOM     12  C25 UNK     0      -4.870  -2.927  -1.635  0.00  0.00    +0.000 C 
ATOM     13  C26 UNK     0      -1.158  -2.549   1.344  0.00  0.00    +0.000 C 
ATOM     14  C27 UNK     0      -0.770   0.693   0.940  0.00  0.00    +0.000 C 
ATOM     15  C28 UNK     0      -0.948  -0.898   3.193  0.00  0.00    +0.000 C 
ATOM     16  C29 UNK     0      -3.649  -3.406   1.108  0.00  0.00    +0.000 C 
ATOM     17  C30 UNK     0      -1.098  -2.373   2.860  0.00  0.00    +0.000 C 
ATOM     18  C31 UNK     0       0.364   0.859   1.954  0.00  0.00    +0.000 C 
ATOM     19  C32 UNK     0       0.285  -0.332   2.938  0.00  0.00    +0.000 C 
ATOM     20  C33 UNK     0      -2.084   1.119   4.154  0.00  0.00    +0.000 C 
ATOM     21  C34 UNK     0      -3.491  -0.700   3.414  0.00  0.00    +0.000 C 
ATOM     22  C35 UNK     0       1.530  -1.082   3.298  0.00  0.00    +0.000 C 
ENDROOT
BRANCH   8  23
ATOM     23  O4  UNK     0      -2.619   2.066   1.745  0.00  0.00    +0.000 OA
ATOM     24  H80 UNK     0      -2.409   2.575   0.921  0.00  0.00    +0.000 HD
ENDBRANCH   8  23
BRANCH  17  25
ATOM     25  O7  UNK     0      -2.074  -2.998   3.655  0.00  0.00    +0.000 OA
ATOM     26  H85 UNK     0      -2.049  -3.941   3.370  0.00  0.00    +0.000 HD
ENDBRANCH  17  25
BRANCH   9  27
ATOM     27  O5  UNK     0      -2.367  -4.884  -0.809  0.00  0.00    +0.000 OA
ATOM     28  H81 UNK     0      -1.963  -5.392  -1.575  0.00  0.00    +0.000 HD
ENDBRANCH   9  27
BRANCH  18  29
ATOM     29  O8  UNK     0       1.604   0.874   1.245  0.00  0.00    +0.000 OA
BRANCH  29  30
ATOM     30  C39 UNK     0       1.774   1.627   0.052  0.00  0.00    +0.000 C 
ATOM     31  O11 UNK     0       1.334   2.799  -0.008  0.00  0.00    +0.000 OA
BRANCH  30  32
ATOM     32  C41 UNK     0       2.289   0.920  -1.198  0.00  0.00    +0.000 C 
BRANCH  32  33
ATOM     33  O12 UNK     0       1.765  -0.395  -1.341  0.00  0.00    +0.000 OA
ATOM     34  H95 UNK     0       1.284  -0.669  -0.517  0.00  0.00    +0.000 HD
ENDBRANCH  32  33
BRANCH  32  35
ATOM     35  C44 UNK     0       3.850   0.967  -1.276  0.00  0.00    +0.000 C 
BRANCH  35  36
ATOM     36  C48 UNK     0       4.476  -0.244  -1.946  0.00  0.00    +0.000 A 
ATOM     37  C50 UNK     0       5.435  -0.033  -2.940  0.00  0.00    +0.000 A 
ATOM     38  C53 UNK     0       6.348  -1.022  -3.268  0.00  0.00    +0.000 A 
ATOM     39  C54 UNK     0       6.235  -2.291  -2.661  0.00  0.00    +0.000 A 
ATOM     40  C52 UNK     0       5.241  -2.535  -1.721  0.00  0.00    +0.000 A 
ATOM     41  C49 UNK     0       4.369  -1.520  -1.350  0.00  0.00    +0.000 A 
ENDBRANCH  35  36
BRANCH  35  42
ATOM     42  N15 UNK     0       4.484   1.146   0.042  0.00  0.00    +0.000 N 
ATOM     43  C51 UNK     0       5.525   2.088   0.229  0.00  0.00    +0.000 C 
ATOM     44  O14 UNK     0       5.691   3.004  -0.637  0.00  0.00    +0.000 OA
ATOM     45  H97 UNK     0       4.358   0.391   0.760  0.00  0.00    +0.000 HD
BRANCH  43  46
ATOM     46  O13 UNK     0       6.353   1.977   1.343  0.00  0.00    +0.000 OA
BRANCH  46  47
ATOM     47  C55 UNK     0       7.664   2.544   1.408  0.00  0.00    +0.000 C 
ATOM     48  C56 UNK     0       8.566   1.958   0.297  0.00  0.00    +0.000 C 
ATOM     49  C57 UNK     0       7.631   4.088   1.298  0.00  0.00    +0.000 C 
ATOM     50  C58 UNK     0       8.243   2.153   2.757  0.00  0.00    +0.000 C 
ENDBRANCH  46  47
ENDBRANCH  43  46
ENDBRANCH  35  42
ENDBRANCH  32  35
ENDBRANCH  30  32
ENDBRANCH  29  30
ENDBRANCH  18  29
BRANCH   7  51
ATOM     51  O3  UNK     0      -3.224   0.976  -0.540  0.00  0.00    +0.000 OA
BRANCH  51  52
ATOM     52  C37 UNK     0      -4.183   1.980  -0.897  0.00  0.00    +0.000 C 
ATOM     53  O10 UNK     0      -5.040   2.435  -0.097  0.00  0.00    +0.000 OA
BRANCH  52  54
ATOM     54  C40 UNK     0      -4.131   2.396  -2.318  0.00  0.00    +0.000 A 
ATOM     55  C42 UNK     0      -3.103   1.937  -3.156  0.00  0.00    +0.000 A 
ATOM     56  C45 UNK     0      -3.113   2.234  -4.520  0.00  0.00    +0.000 A 
ATOM     57  C47 UNK     0      -4.184   2.954  -5.059  0.00  0.00    +0.000 A 
ATOM     58  C46 UNK     0      -5.225   3.384  -4.238  0.00  0.00    +0.000 A 
ATOM     59  C43 UNK     0      -5.193   3.133  -2.867  0.00  0.00    +0.000 A 
ENDBRANCH  52  54
ENDBRANCH  51  52
ENDBRANCH   7  51
BRANCH   4  60
ATOM     60  O2  UNK     0      -4.975  -0.510  -1.636  0.00  0.00    +0.000 OA
BRANCH  60  61
ATOM     61  C36 UNK     0      -6.162  -0.329  -0.911  0.00  0.00    +0.000 C 
ATOM     62  C38 UNK     0      -7.233   0.575  -1.457  0.00  0.00    +0.000 C 
ATOM     63  O9  UNK     0      -6.357  -0.892   0.201  0.00  0.00    +0.000 OA
ENDBRANCH  60  61
ENDBRANCH   4  60
TORSDOF 17
