REMARK  Name = C:\Users\Maximilian\Desktop\Conformers\converted_pdb\conformers_pdb\Docetaxel_conf_74.pdb
REMARK  25 active torsions:
REMARK  status: ('A' for Active; 'I' for Inactive)
REMARK    1  A    between atoms: C17_4  and  O2_58
REMARK    2  A    between atoms: C18_5  and  C29_16
REMARK    3  A    between atoms: C20_7  and  O3_47
REMARK    4  A    between atoms: C21_8  and  O4_45
REMARK    5  A    between atoms: C22_9  and  O5_62
REMARK    6  A    between atoms: C24_11  and  C33_20
REMARK    7  A    between atoms: C24_11  and  C34_21
REMARK    8  A    between atoms: C30_17  and  O7_56
REMARK    9  A    between atoms: C31_18  and  O8_23
REMARK   10  A    between atoms: C32_19  and  C35_22
REMARK   11  A    between atoms: O8_23  and  C39_24
REMARK   12  A    between atoms: C39_24  and  C41_26
REMARK   13  A    between atoms: C41_26  and  O12_27
REMARK   14  A    between atoms: C41_26  and  C44_29
REMARK   15  A    between atoms: C44_29  and  C48_30
REMARK   16  A    between atoms: C44_29  and  N15_36
REMARK   17  A    between atoms: C51_37  and  O13_40
REMARK   18  A    between atoms: O13_40  and  C55_41
REMARK   19  A    between atoms: C55_41  and  C56_42
REMARK   20  A    between atoms: C55_41  and  C57_43
REMARK   21  A    between atoms: C55_41  and  C58_44
REMARK   22  A    between atoms: O3_47  and  C37_48
REMARK   23  A    between atoms: C37_48  and  C40_50
REMARK   24  A    between atoms: O2_58  and  C36_59
REMARK   25  A    between atoms: C36_59  and  C38_60
REMARK                            x       y       z     vdW  Elec       q    Type
REMARK                         _______ _______ _______ _____ _____    ______ ____
ROOT
ATOM      1  O1  UNK     0      -4.838   1.080  -2.633  0.00  0.00    +0.000 OA
ATOM      2  O6  UNK     0      -1.086  -3.322  -1.200  0.00  0.00    +0.000 OA
ATOM      3  C16 UNK     0      -2.751  -0.437  -0.324  0.00  0.00    +0.000 C 
ATOM      4  C17 UNK     0      -3.192   0.743  -1.316  0.00  0.00    +0.000 C 
ATOM      5  C18 UNK     0      -3.013  -1.910  -0.932  0.00  0.00    +0.000 C 
ATOM      6  C19 UNK     0      -3.561   0.518  -2.786  0.00  0.00    +0.000 C 
ATOM      7  C20 UNK     0      -3.225  -0.072   1.183  0.00  0.00    +0.000 C 
ATOM      8  C21 UNK     0      -2.237  -0.259   2.434  0.00  0.00    +0.000 C 
ATOM      9  C22 UNK     0      -2.803  -1.856  -2.508  0.00  0.00    +0.000 C 
ATOM     10  C23 UNK     0      -3.728  -0.915  -3.256  0.00  0.00    +0.000 C 
ATOM     11  C24 UNK     0      -2.103  -1.735   2.940  0.00  0.00    +0.000 C 
ATOM     12  C25 UNK     0      -4.648   1.214  -1.256  0.00  0.00    +0.000 C 
ATOM     13  C26 UNK     0      -1.970  -2.964  -0.433  0.00  0.00    +0.000 C 
ATOM     14  C27 UNK     0      -0.821   0.373   2.126  0.00  0.00    +0.000 C 
ATOM     15  C28 UNK     0      -1.294  -2.498   1.886  0.00  0.00    +0.000 C 
ATOM     16  C29 UNK     0      -4.451  -2.416  -0.645  0.00  0.00    +0.000 C 
ATOM     17  C30 UNK     0      -1.872  -3.560   0.954  0.00  0.00    +0.000 C 
ATOM     18  C31 UNK     0       0.368  -0.599   1.884  0.00  0.00    +0.000 C 
ATOM     19  C32 UNK     0      -0.040  -2.030   1.597  0.00  0.00    +0.000 C 
ATOM     20  C33 UNK     0      -1.316  -1.804   4.292  0.00  0.00    +0.000 C 
ATOM     21  C34 UNK     0      -3.488  -2.339   3.324  0.00  0.00    +0.000 C 
ATOM     22  C35 UNK     0       1.045  -2.943   1.059  0.00  0.00    +0.000 C 
ENDROOT
BRANCH   8  23
ATOM     23  O4  UNK     0      -2.805   0.441   3.530  0.00  0.00    +0.000 OA
ATOM     24  H80 UNK     0      -2.618   1.412   3.448  0.00  0.00    +0.000 HD
ENDBRANCH   8  23
BRANCH  17  25
ATOM     25  O7  UNK     0      -3.099  -4.111   1.340  0.00  0.00    +0.000 OA
ATOM     26  H85 UNK     0      -2.904  -4.851   1.971  0.00  0.00    +0.000 HD
ENDBRANCH  17  25
BRANCH   9  27
ATOM     27  O5  UNK     0      -2.866  -3.134  -3.105  0.00  0.00    +0.000 OA
ATOM     28  H81 UNK     0      -3.816  -3.428  -3.136  0.00  0.00    +0.000 HD
ENDBRANCH   9  27
BRANCH  18  29
ATOM     29  O8  UNK     0       1.177  -0.123   0.801  0.00  0.00    +0.000 OA
BRANCH  29  30
ATOM     30  C39 UNK     0       2.024   0.987   0.907  0.00  0.00    +0.000 C 
ATOM     31  O11 UNK     0       1.913   1.786   1.877  0.00  0.00    +0.000 OA
BRANCH  30  32
ATOM     32  C41 UNK     0       3.098   1.218  -0.127  0.00  0.00    +0.000 C 
BRANCH  32  33
ATOM     33  O12 UNK     0       2.522   1.376  -1.400  0.00  0.00    +0.000 OA
ATOM     34  H95 UNK     0       2.092   0.514  -1.647  0.00  0.00    +0.000 HD
ENDBRANCH  32  33
BRANCH  32  35
ATOM     35  C44 UNK     0       4.145   0.074  -0.140  0.00  0.00    +0.000 C 
BRANCH  35  36
ATOM     36  C48 UNK     0       4.710  -0.241   1.234  0.00  0.00    +0.000 A 
ATOM     37  C50 UNK     0       5.224   0.774   2.066  0.00  0.00    +0.000 A 
ATOM     38  C53 UNK     0       5.769   0.460   3.316  0.00  0.00    +0.000 A 
ATOM     39  C54 UNK     0       5.822  -0.870   3.740  0.00  0.00    +0.000 A 
ATOM     40  C52 UNK     0       5.335  -1.886   2.917  0.00  0.00    +0.000 A 
ATOM     41  C49 UNK     0       4.791  -1.576   1.668  0.00  0.00    +0.000 A 
ENDBRANCH  35  36
BRANCH  35  42
ATOM     42  N15 UNK     0       5.246   0.421  -1.042  0.00  0.00    +0.000 N 
ATOM     43  C51 UNK     0       5.368  -0.099  -2.372  0.00  0.00    +0.000 C 
ATOM     44  O14 UNK     0       4.513  -0.914  -2.818  0.00  0.00    +0.000 OA
ATOM     45  H97 UNK     0       5.930   1.153  -0.742  0.00  0.00    +0.000 HD
BRANCH  43  46
ATOM     46  O13 UNK     0       6.448   0.325  -3.160  0.00  0.00    +0.000 OA
BRANCH  46  47
ATOM     47  C55 UNK     0       6.723  -0.073  -4.513  0.00  0.00    +0.000 C 
ATOM     48  C56 UNK     0       6.959  -1.593  -4.592  0.00  0.00    +0.000 C 
ATOM     49  C57 UNK     0       5.571   0.340  -5.452  0.00  0.00    +0.000 C 
ATOM     50  C58 UNK     0       8.005   0.654  -4.946  0.00  0.00    +0.000 C 
ENDBRANCH  46  47
ENDBRANCH  43  46
ENDBRANCH  35  42
ENDBRANCH  32  35
ENDBRANCH  30  32
ENDBRANCH  29  30
ENDBRANCH  18  29
BRANCH   7  51
ATOM     51  O3  UNK     0      -3.601   1.314   1.220  0.00  0.00    +0.000 OA
BRANCH  51  52
ATOM     52  C37 UNK     0      -4.731   1.830   1.872  0.00  0.00    +0.000 C 
ATOM     53  O10 UNK     0      -5.548   1.055   2.442  0.00  0.00    +0.000 OA
BRANCH  52  54
ATOM     54  C40 UNK     0      -4.957   3.291   1.882  0.00  0.00    +0.000 A 
ATOM     55  C42 UNK     0      -4.022   4.155   1.279  0.00  0.00    +0.000 A 
ATOM     56  C45 UNK     0      -4.231   5.536   1.283  0.00  0.00    +0.000 A 
ATOM     57  C47 UNK     0      -5.367   6.071   1.895  0.00  0.00    +0.000 A 
ATOM     58  C46 UNK     0      -6.298   5.224   2.501  0.00  0.00    +0.000 A 
ATOM     59  C43 UNK     0      -6.097   3.840   2.496  0.00  0.00    +0.000 A 
ENDBRANCH  52  54
ENDBRANCH  51  52
ENDBRANCH   7  51
BRANCH   4  60
ATOM     60  O2  UNK     0      -2.343   1.890  -1.158  0.00  0.00    +0.000 OA
BRANCH  60  61
ATOM     61  C36 UNK     0      -1.009   1.956  -1.577  0.00  0.00    +0.000 C 
ATOM     62  C38 UNK     0      -0.200   3.156  -1.234  0.00  0.00    +0.000 C 
ATOM     63  O9  UNK     0      -0.479   1.000  -2.207  0.00  0.00    +0.000 OA
ENDBRANCH  60  61
ENDBRANCH   4  60
TORSDOF 17
