REMARK  Name = C:\Users\Maximilian\Desktop\Conformers\converted_pdb\conformers_pdb\Docetaxel_conf_10.pdb
REMARK  25 active torsions:
REMARK  status: ('A' for Active; 'I' for Inactive)
REMARK    1  A    between atoms: C17_4  and  O2_58
REMARK    2  A    between atoms: C18_5  and  C29_16
REMARK    3  A    between atoms: C20_7  and  O3_47
REMARK    4  A    between atoms: C21_8  and  O4_45
REMARK    5  A    between atoms: C22_9  and  O5_62
REMARK    6  A    between atoms: C24_11  and  C33_20
REMARK    7  A    between atoms: C24_11  and  C34_21
REMARK    8  A    between atoms: C30_17  and  O7_56
REMARK    9  A    between atoms: C31_18  and  O8_23
REMARK   10  A    between atoms: C32_19  and  C35_22
REMARK   11  A    between atoms: O8_23  and  C39_24
REMARK   12  A    between atoms: C39_24  and  C41_26
REMARK   13  A    between atoms: C41_26  and  O12_27
REMARK   14  A    between atoms: C41_26  and  C44_29
REMARK   15  A    between atoms: C44_29  and  C48_30
REMARK   16  A    between atoms: C44_29  and  N15_36
REMARK   17  A    between atoms: C51_37  and  O13_40
REMARK   18  A    between atoms: O13_40  and  C55_41
REMARK   19  A    between atoms: C55_41  and  C56_42
REMARK   20  A    between atoms: C55_41  and  C57_43
REMARK   21  A    between atoms: C55_41  and  C58_44
REMARK   22  A    between atoms: O3_47  and  C37_48
REMARK   23  A    between atoms: C37_48  and  C40_50
REMARK   24  A    between atoms: O2_58  and  C36_59
REMARK   25  A    between atoms: C36_59  and  C38_60
REMARK                            x       y       z     vdW  Elec       q    Type
REMARK                         _______ _______ _______ _____ _____    ______ ____
ROOT
ATOM      1  O1  UNK     0      -5.964   3.184   1.136  0.00  0.00    +0.000 OA
ATOM      2  O6  UNK     0      -0.216   2.567   0.903  0.00  0.00    +0.000 OA
ATOM      3  C16 UNK     0      -3.148   1.582   0.373  0.00  0.00    +0.000 C 
ATOM      4  C17 UNK     0      -4.576   1.576   1.071  0.00  0.00    +0.000 C 
ATOM      5  C18 UNK     0      -2.469   3.042   0.359  0.00  0.00    +0.000 C 
ATOM      6  C19 UNK     0      -4.975   2.706   2.019  0.00  0.00    +0.000 C 
ATOM      7  C20 UNK     0      -3.148   0.557  -0.888  0.00  0.00    +0.000 C 
ATOM      8  C21 UNK     0      -1.820   0.019  -1.646  0.00  0.00    +0.000 C 
ATOM      9  C22 UNK     0      -2.533   3.555   1.854  0.00  0.00    +0.000 C 
ATOM     10  C23 UNK     0      -3.954   3.791   2.390  0.00  0.00    +0.000 C 
ATOM     11  C24 UNK     0      -1.141   1.025  -2.677  0.00  0.00    +0.000 C 
ATOM     12  C25 UNK     0      -5.702   2.145   0.214  0.00  0.00    +0.000 C 
ATOM     13  C26 UNK     0      -0.961   2.949   0.016  0.00  0.00    +0.000 C 
ATOM     14  C27 UNK     0      -0.785  -0.502  -0.554  0.00  0.00    +0.000 C 
ATOM     15  C28 UNK     0      -0.022   1.804  -1.945  0.00  0.00    +0.000 C 
ATOM     16  C29 UNK     0      -3.197   4.128  -0.491  0.00  0.00    +0.000 C 
ATOM     17  C30 UNK     0      -0.277   3.179  -1.331  0.00  0.00    +0.000 C 
ATOM     18  C31 UNK     0       0.682  -0.406  -0.999  0.00  0.00    +0.000 C 
ATOM     19  C32 UNK     0       0.980   1.041  -1.383  0.00  0.00    +0.000 C 
ATOM     20  C33 UNK     0      -0.461   0.304  -3.897  0.00  0.00    +0.000 C 
ATOM     21  C34 UNK     0      -2.198   1.886  -3.419  0.00  0.00    +0.000 C 
ATOM     22  C35 UNK     0       2.306   1.635  -0.935  0.00  0.00    +0.000 C 
ENDROOT
BRANCH   8  23
ATOM     23  O4  UNK     0      -2.244  -1.073  -2.447  0.00  0.00    +0.000 OA
ATOM     24  H80 UNK     0      -1.885  -1.947  -2.124  0.00  0.00    +0.000 HD
ENDBRANCH   8  23
BRANCH  17  25
ATOM     25  O7  UNK     0      -0.977   4.031  -2.185  0.00  0.00    +0.000 OA
ATOM     26  H85 UNK     0      -0.775   4.958  -1.895  0.00  0.00    +0.000 HD
ENDBRANCH  17  25
BRANCH   9  27
ATOM     27  O5  UNK     0      -1.736   4.703   2.062  0.00  0.00    +0.000 OA
ATOM     28  H81 UNK     0      -2.212   5.494   1.705  0.00  0.00    +0.000 HD
ENDBRANCH   9  27
BRANCH  18  29
ATOM     29  O8  UNK     0       1.524  -0.838   0.076  0.00  0.00    +0.000 OA
BRANCH  29  30
ATOM     30  C39 UNK     0       1.781  -2.194   0.331  0.00  0.00    +0.000 C 
ATOM     31  O11 UNK     0       1.392  -3.076  -0.487  0.00  0.00    +0.000 OA
BRANCH  30  32
ATOM     32  C41 UNK     0       2.704  -2.617   1.441  0.00  0.00    +0.000 C 
BRANCH  32  33
ATOM     33  O12 UNK     0       2.419  -1.950   2.643  0.00  0.00    +0.000 OA
ATOM     34  H95 UNK     0       2.318  -0.978   2.459  0.00  0.00    +0.000 HD
ENDBRANCH  32  33
BRANCH  32  35
ATOM     35  C44 UNK     0       4.181  -2.472   1.028  0.00  0.00    +0.000 C 
BRANCH  35  36
ATOM     36  C48 UNK     0       5.109  -3.139   2.021  0.00  0.00    +0.000 A 
ATOM     37  C50 UNK     0       5.538  -4.456   1.796  0.00  0.00    +0.000 A 
ATOM     38  C53 UNK     0       6.384  -5.098   2.705  0.00  0.00    +0.000 A 
ATOM     39  C54 UNK     0       6.866  -4.410   3.821  0.00  0.00    +0.000 A 
ATOM     40  C52 UNK     0       6.467  -3.087   4.053  0.00  0.00    +0.000 A 
ATOM     41  C49 UNK     0       5.567  -2.468   3.177  0.00  0.00    +0.000 A 
ENDBRANCH  35  36
BRANCH  35  42
ATOM     42  N15 UNK     0       4.548  -1.060   0.833  0.00  0.00    +0.000 N 
ATOM     43  C51 UNK     0       5.482  -0.629  -0.160  0.00  0.00    +0.000 C 
ATOM     44  O14 UNK     0       5.993  -1.463  -0.949  0.00  0.00    +0.000 OA
ATOM     45  H97 UNK     0       4.254  -0.348   1.520  0.00  0.00    +0.000 HD
BRANCH  43  46
ATOM     46  O13 UNK     0       5.816   0.735  -0.232  0.00  0.00    +0.000 OA
BRANCH  46  47
ATOM     47  C55 UNK     0       6.726   1.354  -1.154  0.00  0.00    +0.000 C 
ATOM     48  C56 UNK     0       6.308   1.101  -2.607  0.00  0.00    +0.000 C 
ATOM     49  C57 UNK     0       6.687   2.876  -0.916  0.00  0.00    +0.000 C 
ATOM     50  C58 UNK     0       8.157   0.843  -0.895  0.00  0.00    +0.000 C 
ENDBRANCH  46  47
ENDBRANCH  43  46
ENDBRANCH  35  42
ENDBRANCH  32  35
ENDBRANCH  30  32
ENDBRANCH  29  30
ENDBRANCH  18  29
BRANCH   7  51
ATOM     51  O3  UNK     0      -3.737  -0.646  -0.369  0.00  0.00    +0.000 OA
BRANCH  51  52
ATOM     52  C37 UNK     0      -4.614  -1.501  -1.038  0.00  0.00    +0.000 C 
ATOM     53  O10 UNK     0      -5.241  -1.093  -2.046  0.00  0.00    +0.000 OA
BRANCH  52  54
ATOM     54  C40 UNK     0      -4.745  -2.909  -0.582  0.00  0.00    +0.000 A 
ATOM     55  C42 UNK     0      -5.562  -3.817  -1.285  0.00  0.00    +0.000 A 
ATOM     56  C45 UNK     0      -5.660  -5.146  -0.868  0.00  0.00    +0.000 A 
ATOM     57  C47 UNK     0      -4.956  -5.586   0.253  0.00  0.00    +0.000 A 
ATOM     58  C46 UNK     0      -4.150  -4.695   0.965  0.00  0.00    +0.000 A 
ATOM     59  C43 UNK     0      -4.043  -3.364   0.544  0.00  0.00    +0.000 A 
ENDBRANCH  52  54
ENDBRANCH  51  52
ENDBRANCH   7  51
BRANCH   4  60
ATOM     60  O2  UNK     0      -4.874   0.287   1.667  0.00  0.00    +0.000 OA
BRANCH  60  61
ATOM     61  C36 UNK     0      -6.102  -0.175   2.204  0.00  0.00    +0.000 C 
ATOM     62  C38 UNK     0      -6.233  -1.593   2.634  0.00  0.00    +0.000 C 
ATOM     63  O9  UNK     0      -7.105   0.587   2.291  0.00  0.00    +0.000 OA
ENDBRANCH  60  61
ENDBRANCH   4  60
TORSDOF 17
