REMARK  Name = C:\Users\Maximilian\Desktop\Conformers\converted_pdb\conformers_pdb\Docetaxel_conf_55.pdb
REMARK  25 active torsions:
REMARK  status: ('A' for Active; 'I' for Inactive)
REMARK    1  A    between atoms: C17_4  and  O2_58
REMARK    2  A    between atoms: C18_5  and  C29_16
REMARK    3  A    between atoms: C20_7  and  O3_47
REMARK    4  A    between atoms: C21_8  and  O4_45
REMARK    5  A    between atoms: C22_9  and  O5_62
REMARK    6  A    between atoms: C24_11  and  C33_20
REMARK    7  A    between atoms: C24_11  and  C34_21
REMARK    8  A    between atoms: C30_17  and  O7_56
REMARK    9  A    between atoms: C31_18  and  O8_23
REMARK   10  A    between atoms: C32_19  and  C35_22
REMARK   11  A    between atoms: O8_23  and  C39_24
REMARK   12  A    between atoms: C39_24  and  C41_26
REMARK   13  A    between atoms: C41_26  and  O12_27
REMARK   14  A    between atoms: C41_26  and  C44_29
REMARK   15  A    between atoms: C44_29  and  C48_30
REMARK   16  A    between atoms: C44_29  and  N15_36
REMARK   17  A    between atoms: C51_37  and  O13_40
REMARK   18  A    between atoms: O13_40  and  C55_41
REMARK   19  A    between atoms: C55_41  and  C56_42
REMARK   20  A    between atoms: C55_41  and  C57_43
REMARK   21  A    between atoms: C55_41  and  C58_44
REMARK   22  A    between atoms: O3_47  and  C37_48
REMARK   23  A    between atoms: C37_48  and  C40_50
REMARK   24  A    between atoms: O2_58  and  C36_59
REMARK   25  A    between atoms: C36_59  and  C38_60
REMARK                            x       y       z     vdW  Elec       q    Type
REMARK                         _______ _______ _______ _____ _____    ______ ____
ROOT
ATOM      1  O1  UNK     0      -3.603  -1.183   2.784  0.00  0.00    +0.000 OA
ATOM      2  O6  UNK     0      -4.114   3.838  -0.520  0.00  0.00    +0.000 OA
ATOM      3  C16 UNK     0      -3.094   0.418  -0.060  0.00  0.00    +0.000 C 
ATOM      4  C17 UNK     0      -2.549   0.129   1.435  0.00  0.00    +0.000 C 
ATOM      5  C18 UNK     0      -4.331   1.471  -0.185  0.00  0.00    +0.000 C 
ATOM      6  C19 UNK     0      -3.621   0.193   2.534  0.00  0.00    +0.000 C 
ATOM      7  C20 UNK     0      -3.028  -0.711  -1.201  0.00  0.00    +0.000 C 
ATOM      8  C21 UNK     0      -1.866  -0.613  -2.305  0.00  0.00    +0.000 C 
ATOM      9  C22 UNK     0      -4.755   1.947   1.246  0.00  0.00    +0.000 C 
ATOM     10  C23 UNK     0      -4.982   0.731   2.149  0.00  0.00    +0.000 C 
ATOM     11  C24 UNK     0      -2.210   0.462  -3.429  0.00  0.00    +0.000 C 
ATOM     12  C25 UNK     0      -2.433  -1.303   2.010  0.00  0.00    +0.000 C 
ATOM     13  C26 UNK     0      -3.928   2.735  -1.016  0.00  0.00    +0.000 C 
ATOM     14  C27 UNK     0      -0.471  -0.295  -1.638  0.00  0.00    +0.000 C 
ATOM     15  C28 UNK     0      -2.161   1.851  -2.715  0.00  0.00    +0.000 C 
ATOM     16  C29 UNK     0      -5.610   0.843  -0.829  0.00  0.00    +0.000 C 
ATOM     17  C30 UNK     0      -3.399   2.743  -2.460  0.00  0.00    +0.000 C 
ATOM     18  C31 UNK     0       0.111   1.107  -1.968  0.00  0.00    +0.000 C 
ATOM     19  C32 UNK     0      -0.982   2.181  -2.065  0.00  0.00    +0.000 C 
ATOM     20  C33 UNK     0      -1.146   0.418  -4.582  0.00  0.00    +0.000 C 
ATOM     21  C34 UNK     0      -3.540   0.105  -4.176  0.00  0.00    +0.000 C 
ATOM     22  C35 UNK     0      -0.802   3.467  -1.298  0.00  0.00    +0.000 C 
ENDROOT
BRANCH   8  23
ATOM     23  O4  UNK     0      -1.767  -1.862  -2.962  0.00  0.00    +0.000 OA
ATOM     24  H80 UNK     0      -1.396  -2.533  -2.325  0.00  0.00    +0.000 HD
ENDBRANCH   8  23
BRANCH  17  25
ATOM     25  O7  UNK     0      -4.455   2.518  -3.347  0.00  0.00    +0.000 OA
ATOM     26  H85 UNK     0      -4.176   2.892  -4.225  0.00  0.00    +0.000 HD
ENDBRANCH  17  25
BRANCH   9  27
ATOM     27  O5  UNK     0      -5.911   2.754   1.216  0.00  0.00    +0.000 OA
ATOM     28  H81 UNK     0      -5.949   3.180   2.118  0.00  0.00    +0.000 HD
ENDBRANCH   9  27
BRANCH  18  29
ATOM     29  O8  UNK     0       1.087   1.459  -0.997  0.00  0.00    +0.000 OA
BRANCH  29  30
ATOM     30  C39 UNK     0       2.389   0.957  -1.014  0.00  0.00    +0.000 C 
ATOM     31  O11 UNK     0       2.630  -0.204  -1.444  0.00  0.00    +0.000 OA
BRANCH  30  32
ATOM     32  C41 UNK     0       3.528   1.867  -0.655  0.00  0.00    +0.000 C 
BRANCH  32  33
ATOM     33  O12 UNK     0       4.433   1.942  -1.731  0.00  0.00    +0.000 OA
ATOM     34  H95 UNK     0       3.992   2.464  -2.452  0.00  0.00    +0.000 HD
ENDBRANCH  32  33
BRANCH  32  35
ATOM     35  C44 UNK     0       4.259   1.415   0.633  0.00  0.00    +0.000 C 
BRANCH  35  36
ATOM     36  C48 UNK     0       5.105   2.555   1.181  0.00  0.00    +0.000 A 
ATOM     37  C50 UNK     0       6.240   3.015   0.482  0.00  0.00    +0.000 A 
ATOM     38  C53 UNK     0       6.905   4.164   0.904  0.00  0.00    +0.000 A 
ATOM     39  C54 UNK     0       6.450   4.863   2.026  0.00  0.00    +0.000 A 
ATOM     40  C52 UNK     0       5.340   4.411   2.736  0.00  0.00    +0.000 A 
ATOM     41  C49 UNK     0       4.667   3.269   2.318  0.00  0.00    +0.000 A 
ENDBRANCH  35  36
BRANCH  35  42
ATOM     42  N15 UNK     0       5.085   0.223   0.410  0.00  0.00    +0.000 N 
ATOM     43  C51 UNK     0       5.576  -0.566   1.505  0.00  0.00    +0.000 C 
ATOM     44  O14 UNK     0       5.372  -0.195   2.697  0.00  0.00    +0.000 OA
ATOM     45  H97 UNK     0       5.302  -0.100  -0.562  0.00  0.00    +0.000 HD
BRANCH  43  46
ATOM     46  O13 UNK     0       6.239  -1.767   1.235  0.00  0.00    +0.000 OA
BRANCH  46  47
ATOM     47  C55 UNK     0       6.666  -2.734   2.199  0.00  0.00    +0.000 C 
ATOM     48  C56 UNK     0       5.472  -3.252   3.025  0.00  0.00    +0.000 C 
ATOM     49  C57 UNK     0       7.270  -3.913   1.421  0.00  0.00    +0.000 C 
ATOM     50  C58 UNK     0       7.760  -2.141   3.112  0.00  0.00    +0.000 C 
ENDBRANCH  46  47
ENDBRANCH  43  46
ENDBRANCH  35  42
ENDBRANCH  32  35
ENDBRANCH  30  32
ENDBRANCH  29  30
ENDBRANCH  18  29
BRANCH   7  51
ATOM     51  O3  UNK     0      -3.170  -2.034  -0.689  0.00  0.00    +0.000 OA
BRANCH  51  52
ATOM     52  C37 UNK     0      -3.912  -3.056  -1.324  0.00  0.00    +0.000 C 
ATOM     53  O10 UNK     0      -4.351  -2.898  -2.490  0.00  0.00    +0.000 OA
BRANCH  52  54
ATOM     54  C40 UNK     0      -4.155  -4.345  -0.639  0.00  0.00    +0.000 A 
ATOM     55  C42 UNK     0      -5.292  -5.103  -0.972  0.00  0.00    +0.000 A 
ATOM     56  C45 UNK     0      -5.568  -6.293  -0.301  0.00  0.00    +0.000 A 
ATOM     57  C47 UNK     0      -4.718  -6.742   0.715  0.00  0.00    +0.000 A 
ATOM     58  C46 UNK     0      -3.566  -6.011   1.025  0.00  0.00    +0.000 A 
ATOM     59  C43 UNK     0      -3.282  -4.820   0.352  0.00  0.00    +0.000 A 
ENDBRANCH  52  54
ENDBRANCH  51  52
ENDBRANCH   7  51
BRANCH   4  60
ATOM     60  O2  UNK     0      -1.516   1.078   1.786  0.00  0.00    +0.000 OA
BRANCH  60  61
ATOM     61  C36 UNK     0      -0.173   0.886   2.152  0.00  0.00    +0.000 C 
ATOM     62  C38 UNK     0       0.687   2.087   2.346  0.00  0.00    +0.000 C 
ATOM     63  O9  UNK     0       0.292  -0.257   2.439  0.00  0.00    +0.000 OA
ENDBRANCH  60  61
ENDBRANCH   4  60
TORSDOF 17
