REMARK  Name = C:\Users\Maximilian\Desktop\Conformers\converted_pdb\conformers_pdb\Docetaxel_conf_58.pdb
REMARK  25 active torsions:
REMARK  status: ('A' for Active; 'I' for Inactive)
REMARK    1  A    between atoms: C17_4  and  O2_58
REMARK    2  A    between atoms: C18_5  and  C29_16
REMARK    3  A    between atoms: C20_7  and  O3_47
REMARK    4  A    between atoms: C21_8  and  O4_45
REMARK    5  A    between atoms: C22_9  and  O5_62
REMARK    6  A    between atoms: C24_11  and  C33_20
REMARK    7  A    between atoms: C24_11  and  C34_21
REMARK    8  A    between atoms: C30_17  and  O7_56
REMARK    9  A    between atoms: C31_18  and  O8_23
REMARK   10  A    between atoms: C32_19  and  C35_22
REMARK   11  A    between atoms: O8_23  and  C39_24
REMARK   12  A    between atoms: C39_24  and  C41_26
REMARK   13  A    between atoms: C41_26  and  O12_27
REMARK   14  A    between atoms: C41_26  and  C44_29
REMARK   15  A    between atoms: C44_29  and  C48_30
REMARK   16  A    between atoms: C44_29  and  N15_36
REMARK   17  A    between atoms: C51_37  and  O13_40
REMARK   18  A    between atoms: O13_40  and  C55_41
REMARK   19  A    between atoms: C55_41  and  C56_42
REMARK   20  A    between atoms: C55_41  and  C57_43
REMARK   21  A    between atoms: C55_41  and  C58_44
REMARK   22  A    between atoms: O3_47  and  C37_48
REMARK   23  A    between atoms: C37_48  and  C40_50
REMARK   24  A    between atoms: O2_58  and  C36_59
REMARK   25  A    between atoms: C36_59  and  C38_60
REMARK                            x       y       z     vdW  Elec       q    Type
REMARK                         _______ _______ _______ _____ _____    ______ ____
ROOT
ATOM      1  O1  UNK     0      -6.361  -1.309  -2.493  0.00  0.00    +0.000 OA
ATOM      2  O6  UNK     0      -0.822  -2.461  -1.831  0.00  0.00    +0.000 OA
ATOM      3  C16 UNK     0      -3.432  -0.918  -1.120  0.00  0.00    +0.000 C 
ATOM      4  C17 UNK     0      -4.679  -0.228  -1.791  0.00  0.00    +0.000 C 
ATOM      5  C18 UNK     0      -3.192  -2.427  -1.596  0.00  0.00    +0.000 C 
ATOM      6  C19 UNK     0      -5.210  -0.764  -3.099  0.00  0.00    +0.000 C 
ATOM      7  C20 UNK     0      -3.441  -0.634   0.455  0.00  0.00    +0.000 C 
ATOM      8  C21 UNK     0      -2.093  -0.612   1.358  0.00  0.00    +0.000 C 
ATOM      9  C22 UNK     0      -3.190  -2.455  -3.169  0.00  0.00    +0.000 C 
ATOM     10  C23 UNK     0      -4.388  -1.799  -3.880  0.00  0.00    +0.000 C 
ATOM     11  C24 UNK     0      -1.729  -1.996   2.080  0.00  0.00    +0.000 C 
ATOM     12  C25 UNK     0      -6.022  -0.722  -1.267  0.00  0.00    +0.000 C 
ATOM     13  C26 UNK     0      -1.770  -2.883  -1.165  0.00  0.00    +0.000 C 
ATOM     14  C27 UNK     0      -0.834  -0.064   0.552  0.00  0.00    +0.000 C 
ATOM     15  C28 UNK     0      -0.806  -2.795   1.132  0.00  0.00    +0.000 C 
ATOM     16  C29 UNK     0      -4.290  -3.439  -1.139  0.00  0.00    +0.000 C 
ATOM     17  C30 UNK     0      -1.375  -3.722   0.046  0.00  0.00    +0.000 C 
ATOM     18  C31 UNK     0       0.535  -0.699   0.930  0.00  0.00    +0.000 C 
ATOM     19  C32 UNK     0       0.413  -2.221   0.857  0.00  0.00    +0.000 C 
ATOM     20  C33 UNK     0      -0.937  -1.761   3.435  0.00  0.00    +0.000 C 
ATOM     21  C34 UNK     0      -2.972  -2.789   2.581  0.00  0.00    +0.000 C 
ATOM     22  C35 UNK     0       1.553  -3.011   0.252  0.00  0.00    +0.000 C 
ENDROOT
BRANCH   8  23
ATOM     23  O4  UNK     0      -2.348   0.291   2.423  0.00  0.00    +0.000 OA
ATOM     24  H80 UNK     0      -2.306   1.221   2.104  0.00  0.00    +0.000 HD
ENDBRANCH   8  23
BRANCH  17  25
ATOM     25  O7  UNK     0      -2.391  -4.564   0.524  0.00  0.00    +0.000 OA
ATOM     26  H85 UNK     0      -1.963  -5.179   1.172  0.00  0.00    +0.000 HD
ENDBRANCH  17  25
BRANCH   9  27
ATOM     27  O5  UNK     0      -3.076  -3.801  -3.618  0.00  0.00    +0.000 OA
ATOM     28  H81 UNK     0      -2.635  -3.774  -4.502  0.00  0.00    +0.000 HD
ENDBRANCH   9  27
BRANCH  18  29
ATOM     29  O8  UNK     0       1.531  -0.237   0.015  0.00  0.00    +0.000 OA
BRANCH  29  30
ATOM     30  C39 UNK     0       2.011   1.081   0.010  0.00  0.00    +0.000 C 
ATOM     31  O11 UNK     0       1.595   1.922   0.857  0.00  0.00    +0.000 OA
BRANCH  30  32
ATOM     32  C41 UNK     0       3.109   1.476  -0.941  0.00  0.00    +0.000 C 
BRANCH  32  33
ATOM     33  O12 UNK     0       2.811   0.957  -2.212  0.00  0.00    +0.000 OA
ATOM     34  H95 UNK     0       3.205   1.582  -2.874  0.00  0.00    +0.000 HD
ENDBRANCH  32  33
BRANCH  32  35
ATOM     35  C44 UNK     0       4.470   0.907  -0.468  0.00  0.00    +0.000 C 
BRANCH  35  36
ATOM     36  C48 UNK     0       4.781   1.336   0.958  0.00  0.00    +0.000 A 
ATOM     37  C50 UNK     0       4.692   0.411   2.012  0.00  0.00    +0.000 A 
ATOM     38  C53 UNK     0       5.036   0.777   3.321  0.00  0.00    +0.000 A 
ATOM     39  C54 UNK     0       5.454   2.077   3.583  0.00  0.00    +0.000 A 
ATOM     40  C52 UNK     0       5.539   3.017   2.544  0.00  0.00    +0.000 A 
ATOM     41  C49 UNK     0       5.209   2.648   1.239  0.00  0.00    +0.000 A 
ENDBRANCH  35  36
BRANCH  35  42
ATOM     42  N15 UNK     0       5.556   1.348  -1.363  0.00  0.00    +0.000 N 
ATOM     43  C51 UNK     0       6.879   0.797  -1.289  0.00  0.00    +0.000 C 
ATOM     44  O14 UNK     0       7.100  -0.208  -0.567  0.00  0.00    +0.000 OA
ATOM     45  H97 UNK     0       5.387   2.136  -2.038  0.00  0.00    +0.000 HD
BRANCH  43  46
ATOM     46  O13 UNK     0       7.906   1.399  -2.025  0.00  0.00    +0.000 OA
BRANCH  46  47
ATOM     47  C55 UNK     0       9.242   0.903  -2.185  0.00  0.00    +0.000 C 
ATOM     48  C56 UNK     0       9.973   1.870  -3.137  0.00  0.00    +0.000 C 
ATOM     49  C57 UNK     0       9.972   0.886  -0.831  0.00  0.00    +0.000 C 
ATOM     50  C58 UNK     0       9.220  -0.497  -2.816  0.00  0.00    +0.000 C 
ENDBRANCH  46  47
ENDBRANCH  43  46
ENDBRANCH  35  42
ENDBRANCH  32  35
ENDBRANCH  30  32
ENDBRANCH  29  30
ENDBRANCH  18  29
BRANCH   7  51
ATOM     51  O3  UNK     0      -4.119   0.613   0.695  0.00  0.00    +0.000 OA
BRANCH  51  52
ATOM     52  C37 UNK     0      -5.112   0.800   1.678  0.00  0.00    +0.000 C 
ATOM     53  O10 UNK     0      -5.788  -0.177   2.096  0.00  0.00    +0.000 OA
BRANCH  52  54
ATOM     54  C40 UNK     0      -5.308   2.126   2.291  0.00  0.00    +0.000 A 
ATOM     55  C42 UNK     0      -6.342   2.319   3.230  0.00  0.00    +0.000 A 
ATOM     56  C45 UNK     0      -6.402   3.518   3.949  0.00  0.00    +0.000 A 
ATOM     57  C47 UNK     0      -5.435   4.520   3.752  0.00  0.00    +0.000 A 
ATOM     58  C46 UNK     0      -4.457   4.348   2.770  0.00  0.00    +0.000 A 
ATOM     59  C43 UNK     0      -4.398   3.164   2.035  0.00  0.00    +0.000 A 
ENDBRANCH  52  54
ENDBRANCH  51  52
ENDBRANCH   7  51
BRANCH   4  60
ATOM     60  O2  UNK     0      -4.549   1.210  -1.757  0.00  0.00    +0.000 OA
BRANCH  60  61
ATOM     61  C36 UNK     0      -5.494   2.148  -2.217  0.00  0.00    +0.000 C 
ATOM     62  C38 UNK     0      -6.194   3.008  -1.223  0.00  0.00    +0.000 C 
ATOM     63  O9  UNK     0      -5.577   2.433  -3.445  0.00  0.00    +0.000 OA
ENDBRANCH  60  61
ENDBRANCH   4  60
TORSDOF 17
