REMARK  Name = C:\Users\Maximilian\Desktop\Conformers\converted_pdb\conformers_pdb\Docetaxel_conf_12.pdb
REMARK  25 active torsions:
REMARK  status: ('A' for Active; 'I' for Inactive)
REMARK    1  A    between atoms: C17_4  and  O2_58
REMARK    2  A    between atoms: C18_5  and  C29_16
REMARK    3  A    between atoms: C20_7  and  O3_47
REMARK    4  A    between atoms: C21_8  and  O4_45
REMARK    5  A    between atoms: C22_9  and  O5_62
REMARK    6  A    between atoms: C24_11  and  C33_20
REMARK    7  A    between atoms: C24_11  and  C34_21
REMARK    8  A    between atoms: C30_17  and  O7_56
REMARK    9  A    between atoms: C31_18  and  O8_23
REMARK   10  A    between atoms: C32_19  and  C35_22
REMARK   11  A    between atoms: O8_23  and  C39_24
REMARK   12  A    between atoms: C39_24  and  C41_26
REMARK   13  A    between atoms: C41_26  and  O12_27
REMARK   14  A    between atoms: C41_26  and  C44_29
REMARK   15  A    between atoms: C44_29  and  C48_30
REMARK   16  A    between atoms: C44_29  and  N15_36
REMARK   17  A    between atoms: C51_37  and  O13_40
REMARK   18  A    between atoms: O13_40  and  C55_41
REMARK   19  A    between atoms: C55_41  and  C56_42
REMARK   20  A    between atoms: C55_41  and  C57_43
REMARK   21  A    between atoms: C55_41  and  C58_44
REMARK   22  A    between atoms: O3_47  and  C37_48
REMARK   23  A    between atoms: C37_48  and  C40_50
REMARK   24  A    between atoms: O2_58  and  C36_59
REMARK   25  A    between atoms: C36_59  and  C38_60
REMARK                            x       y       z     vdW  Elec       q    Type
REMARK                         _______ _______ _______ _____ _____    ______ ____
ROOT
ATOM      1  O1  UNK     0      -3.330  -0.700  -4.003  0.00  0.00    +0.000 OA
ATOM      2  O6  UNK     0      -1.804  -4.588  -0.253  0.00  0.00    +0.000 OA
ATOM      3  C16 UNK     0      -2.674  -0.970  -0.760  0.00  0.00    +0.000 C 
ATOM      4  C17 UNK     0      -2.807  -0.055  -2.053  0.00  0.00    +0.000 C 
ATOM      5  C18 UNK     0      -2.893  -2.568  -0.983  0.00  0.00    +0.000 C 
ATOM      6  C19 UNK     0      -2.118  -0.593  -3.289  0.00  0.00    +0.000 C 
ATOM      7  C20 UNK     0      -3.389  -0.303   0.489  0.00  0.00    +0.000 C 
ATOM      8  C21 UNK     0      -2.475   0.333   1.671  0.00  0.00    +0.000 C 
ATOM      9  C22 UNK     0      -2.331  -2.983  -2.439  0.00  0.00    +0.000 C 
ATOM     10  C23 UNK     0      -1.416  -1.932  -3.097  0.00  0.00    +0.000 C 
ATOM     11  C24 UNK     0      -2.172  -0.762   2.764  0.00  0.00    +0.000 C 
ATOM     12  C25 UNK     0      -4.060  -0.193  -2.908  0.00  0.00    +0.000 C 
ATOM     13  C26 UNK     0      -2.148  -3.461   0.086  0.00  0.00    +0.000 C 
ATOM     14  C27 UNK     0      -1.106   0.946   1.166  0.00  0.00    +0.000 C 
ATOM     15  C28 UNK     0      -1.388  -1.848   1.984  0.00  0.00    +0.000 C 
ATOM     16  C29 UNK     0      -4.387  -3.034  -0.871  0.00  0.00    +0.000 C 
ATOM     17  C30 UNK     0      -1.969  -3.211   1.609  0.00  0.00    +0.000 C 
ATOM     18  C31 UNK     0       0.146   0.026   1.315  0.00  0.00    +0.000 C 
ATOM     19  C32 UNK     0      -0.204  -1.457   1.402  0.00  0.00    +0.000 C 
ATOM     20  C33 UNK     0      -1.279  -0.208   3.945  0.00  0.00    +0.000 C 
ATOM     21  C34 UNK     0      -3.480  -1.216   3.498  0.00  0.00    +0.000 C 
ATOM     22  C35 UNK     0       0.755  -2.463   0.792  0.00  0.00    +0.000 C 
ENDROOT
BRANCH   8  23
ATOM     23  O4  UNK     0      -3.204   1.362   2.311  0.00  0.00    +0.000 OA
ATOM     24  H80 UNK     0      -3.249   2.142   1.699  0.00  0.00    +0.000 HD
ENDBRANCH   8  23
BRANCH  17  25
ATOM     25  O7  UNK     0      -3.097  -3.598   2.347  0.00  0.00    +0.000 OA
ATOM     26  H85 UNK     0      -3.895  -3.597   1.754  0.00  0.00    +0.000 HD
ENDBRANCH  17  25
BRANCH   9  27
ATOM     27  O5  UNK     0      -3.366  -3.326  -3.333  0.00  0.00    +0.000 OA
ATOM     28  H81 UNK     0      -2.965  -3.874  -4.060  0.00  0.00    +0.000 HD
ENDBRANCH   9  27
BRANCH  18  29
ATOM     29  O8  UNK     0       1.037   0.267   0.217  0.00  0.00    +0.000 OA
BRANCH  29  30
ATOM     30  C39 UNK     0       2.158   1.118   0.291  0.00  0.00    +0.000 C 
ATOM     31  O11 UNK     0       2.484   1.673   1.386  0.00  0.00    +0.000 OA
BRANCH  30  32
ATOM     32  C41 UNK     0       2.995   1.371  -0.946  0.00  0.00    +0.000 C 
BRANCH  32  33
ATOM     33  O12 UNK     0       2.316   0.974  -2.119  0.00  0.00    +0.000 OA
ATOM     34  H95 UNK     0       2.181  -0.008  -2.075  0.00  0.00    +0.000 HD
ENDBRANCH  32  33
BRANCH  32  35
ATOM     35  C44 UNK     0       4.418   0.737  -0.897  0.00  0.00    +0.000 C 
BRANCH  35  36
ATOM     36  C48 UNK     0       4.403  -0.718  -0.480  0.00  0.00    +0.000 A 
ATOM     37  C50 UNK     0       4.359  -1.732  -1.455  0.00  0.00    +0.000 A 
ATOM     38  C53 UNK     0       4.363  -3.079  -1.076  0.00  0.00    +0.000 A 
ATOM     39  C54 UNK     0       4.408  -3.430   0.278  0.00  0.00    +0.000 A 
ATOM     40  C52 UNK     0       4.469  -2.434   1.256  0.00  0.00    +0.000 A 
ATOM     41  C49 UNK     0       4.447  -1.084   0.882  0.00  0.00    +0.000 A 
ENDBRANCH  35  36
BRANCH  35  42
ATOM     42  N15 UNK     0       5.318   1.503  -0.021  0.00  0.00    +0.000 N 
ATOM     43  C51 UNK     0       6.729   1.304  -0.017  0.00  0.00    +0.000 C 
ATOM     44  O14 UNK     0       7.256   0.553  -0.883  0.00  0.00    +0.000 OA
ATOM     45  H97 UNK     0       4.908   2.189   0.655  0.00  0.00    +0.000 HD
BRANCH  43  46
ATOM     46  O13 UNK     0       7.512   1.940   0.961  0.00  0.00    +0.000 OA
BRANCH  46  47
ATOM     47  C55 UNK     0       8.950   1.952   1.000  0.00  0.00    +0.000 C 
ATOM     48  C56 UNK     0       9.516   2.562  -0.298  0.00  0.00    +0.000 C 
ATOM     49  C57 UNK     0       9.359   2.843   2.186  0.00  0.00    +0.000 C 
ATOM     50  C58 UNK     0       9.514   0.528   1.221  0.00  0.00    +0.000 C 
ENDBRANCH  46  47
ENDBRANCH  43  46
ENDBRANCH  35  42
ENDBRANCH  32  35
ENDBRANCH  30  32
ENDBRANCH  29  30
ENDBRANCH  18  29
BRANCH   7  51
ATOM     51  O3  UNK     0      -4.370   0.647   0.049  0.00  0.00    +0.000 OA
BRANCH  51  52
ATOM     52  C37 UNK     0      -5.642   0.803   0.622  0.00  0.00    +0.000 C 
ATOM     53  O10 UNK     0      -6.015   0.048   1.559  0.00  0.00    +0.000 OA
BRANCH  52  54
ATOM     54  C40 UNK     0      -6.536   1.870   0.135  0.00  0.00    +0.000 A 
ATOM     55  C42 UNK     0      -6.123   2.718  -0.910  0.00  0.00    +0.000 A 
ATOM     56  C45 UNK     0      -6.979   3.715  -1.389  0.00  0.00    +0.000 A 
ATOM     57  C47 UNK     0      -8.242   3.891  -0.825  0.00  0.00    +0.000 A 
ATOM     58  C46 UNK     0      -8.660   3.059   0.212  0.00  0.00    +0.000 A 
ATOM     59  C43 UNK     0      -7.816   2.059   0.701  0.00  0.00    +0.000 A 
ENDBRANCH  52  54
ENDBRANCH  51  52
ENDBRANCH   7  51
BRANCH   4  60
ATOM     60  O2  UNK     0      -2.472   1.317  -1.777  0.00  0.00    +0.000 OA
BRANCH  60  61
ATOM     61  C36 UNK     0      -2.456   2.407  -2.664  0.00  0.00    +0.000 C 
ATOM     62  C38 UNK     0      -2.151   3.767  -2.136  0.00  0.00    +0.000 C 
ATOM     63  O9  UNK     0      -2.712   2.270  -3.890  0.00  0.00    +0.000 OA
ENDBRANCH  60  61
ENDBRANCH   4  60
TORSDOF 17
