REMARK  Name = C:\Users\Maximilian\Desktop\Conformers\converted_pdb\conformers_pdb\Docetaxel_conf_32.pdb
REMARK  25 active torsions:
REMARK  status: ('A' for Active; 'I' for Inactive)
REMARK    1  A    between atoms: C17_4  and  O2_58
REMARK    2  A    between atoms: C18_5  and  C29_16
REMARK    3  A    between atoms: C20_7  and  O3_47
REMARK    4  A    between atoms: C21_8  and  O4_45
REMARK    5  A    between atoms: C22_9  and  O5_62
REMARK    6  A    between atoms: C24_11  and  C33_20
REMARK    7  A    between atoms: C24_11  and  C34_21
REMARK    8  A    between atoms: C30_17  and  O7_56
REMARK    9  A    between atoms: C31_18  and  O8_23
REMARK   10  A    between atoms: C32_19  and  C35_22
REMARK   11  A    between atoms: O8_23  and  C39_24
REMARK   12  A    between atoms: C39_24  and  C41_26
REMARK   13  A    between atoms: C41_26  and  O12_27
REMARK   14  A    between atoms: C41_26  and  C44_29
REMARK   15  A    between atoms: C44_29  and  C48_30
REMARK   16  A    between atoms: C44_29  and  N15_36
REMARK   17  A    between atoms: C51_37  and  O13_40
REMARK   18  A    between atoms: O13_40  and  C55_41
REMARK   19  A    between atoms: C55_41  and  C56_42
REMARK   20  A    between atoms: C55_41  and  C57_43
REMARK   21  A    between atoms: C55_41  and  C58_44
REMARK   22  A    between atoms: O3_47  and  C37_48
REMARK   23  A    between atoms: C37_48  and  C40_50
REMARK   24  A    between atoms: O2_58  and  C36_59
REMARK   25  A    between atoms: C36_59  and  C38_60
REMARK                            x       y       z     vdW  Elec       q    Type
REMARK                         _______ _______ _______ _____ _____    ______ ____
ROOT
ATOM      1  O1  UNK     0      -4.005   1.272   2.806  0.00  0.00    +0.000 OA
ATOM      2  O6  UNK     0      -3.092   4.497  -2.003  0.00  0.00    +0.000 OA
ATOM      3  C16 UNK     0      -2.766   1.189  -0.305  0.00  0.00    +0.000 C 
ATOM      4  C17 UNK     0      -2.986   0.514   1.105  0.00  0.00    +0.000 C 
ATOM      5  C18 UNK     0      -3.352   2.673  -0.492  0.00  0.00    +0.000 C 
ATOM      6  C19 UNK     0      -2.701   1.431   2.286  0.00  0.00    +0.000 C 
ATOM      7  C20 UNK     0      -2.982   0.217  -1.545  0.00  0.00    +0.000 C 
ATOM      8  C21 UNK     0      -1.715  -0.102  -2.473  0.00  0.00    +0.000 C 
ATOM      9  C22 UNK     0      -3.377   3.464   0.886  0.00  0.00    +0.000 C 
ATOM     10  C23 UNK     0      -2.397   2.891   1.921  0.00  0.00    +0.000 C 
ATOM     11  C24 UNK     0      -1.130   1.181  -3.192  0.00  0.00    +0.000 C 
ATOM     12  C25 UNK     0      -4.374   0.445   1.719  0.00  0.00    +0.000 C 
ATOM     13  C26 UNK     0      -2.518   3.542  -1.488  0.00  0.00    +0.000 C 
ATOM     14  C27 UNK     0      -0.579  -0.841  -1.666  0.00  0.00    +0.000 C 
ATOM     15  C28 UNK     0      -0.479   2.053  -2.100  0.00  0.00    +0.000 C 
ATOM     16  C29 UNK     0      -4.808   2.629  -1.082  0.00  0.00    +0.000 C 
ATOM     17  C30 UNK     0      -1.003   3.452  -1.745  0.00  0.00    +0.000 C 
ATOM     18  C31 UNK     0       0.698  -0.026  -1.312  0.00  0.00    +0.000 C 
ATOM     19  C32 UNK     0       0.486   1.479  -1.308  0.00  0.00    +0.000 C 
ATOM     20  C33 UNK     0      -0.044   0.800  -4.256  0.00  0.00    +0.000 C 
ATOM     21  C34 UNK     0      -2.206   1.919  -4.047  0.00  0.00    +0.000 C 
ATOM     22  C35 UNK     0       1.403   2.313  -0.439  0.00  0.00    +0.000 C 
ENDROOT
BRANCH   8  23
ATOM     23  O4  UNK     0      -2.159  -0.960  -3.502  0.00  0.00    +0.000 OA
ATOM     24  H80 UNK     0      -2.338  -1.853  -3.110  0.00  0.00    +0.000 HD
ENDBRANCH   8  23
BRANCH  17  25
ATOM     25  O7  UNK     0      -0.618   4.322  -2.781  0.00  0.00    +0.000 OA
ATOM     26  H85 UNK     0      -0.608   5.247  -2.416  0.00  0.00    +0.000 HD
ENDBRANCH  17  25
BRANCH   9  27
ATOM     27  O5  UNK     0      -4.672   3.497   1.448  0.00  0.00    +0.000 OA
ATOM     28  H81 UNK     0      -4.685   4.234   2.118  0.00  0.00    +0.000 HD
ENDBRANCH   9  27
BRANCH  18  29
ATOM     29  O8  UNK     0       1.205  -0.473  -0.048  0.00  0.00    +0.000 OA
BRANCH  29  30
ATOM     30  C39 UNK     0       1.989  -1.627   0.087  0.00  0.00    +0.000 C 
ATOM     31  O11 UNK     0       2.228  -2.352  -0.921  0.00  0.00    +0.000 OA
BRANCH  30  32
ATOM     32  C41 UNK     0       2.603  -2.010   1.414  0.00  0.00    +0.000 C 
BRANCH  32  33
ATOM     33  O12 UNK     0       1.613  -2.312   2.362  0.00  0.00    +0.000 OA
ATOM     34  H95 UNK     0       1.340  -3.254   2.208  0.00  0.00    +0.000 HD
ENDBRANCH  32  33
BRANCH  32  35
ATOM     35  C44 UNK     0       3.606  -0.963   1.967  0.00  0.00    +0.000 C 
BRANCH  35  36
ATOM     36  C48 UNK     0       3.075   0.400   2.402  0.00  0.00    +0.000 A 
ATOM     37  C50 UNK     0       1.713   0.661   2.652  0.00  0.00    +0.000 A 
ATOM     38  C53 UNK     0       1.307   1.896   3.161  0.00  0.00    +0.000 A 
ATOM     39  C54 UNK     0       2.247   2.890   3.432  0.00  0.00    +0.000 A 
ATOM     40  C52 UNK     0       3.603   2.645   3.210  0.00  0.00    +0.000 A 
ATOM     41  C49 UNK     0       4.013   1.409   2.710  0.00  0.00    +0.000 A 
ENDBRANCH  35  36
BRANCH  35  42
ATOM     42  N15 UNK     0       4.692  -0.788   0.994  0.00  0.00    +0.000 N 
ATOM     43  C51 UNK     0       6.008  -1.330   1.170  0.00  0.00    +0.000 C 
ATOM     44  O14 UNK     0       6.321  -1.921   2.237  0.00  0.00    +0.000 OA
ATOM     45  H97 UNK     0       4.492  -0.286   0.098  0.00  0.00    +0.000 HD
BRANCH  43  46
ATOM     46  O13 UNK     0       6.940  -1.182   0.134  0.00  0.00    +0.000 OA
BRANCH  46  47
ATOM     47  C55 UNK     0       8.308  -1.613   0.162  0.00  0.00    +0.000 C 
ATOM     48  C56 UNK     0       8.407  -3.138   0.369  0.00  0.00    +0.000 C 
ATOM     49  C57 UNK     0       8.925  -1.260  -1.201  0.00  0.00    +0.000 C 
ATOM     50  C58 UNK     0       9.082  -0.871   1.271  0.00  0.00    +0.000 C 
ENDBRANCH  46  47
ENDBRANCH  43  46
ENDBRANCH  35  42
ENDBRANCH  32  35
ENDBRANCH  30  32
ENDBRANCH  29  30
ENDBRANCH  18  29
BRANCH   7  51
ATOM     51  O3  UNK     0      -3.602  -0.997  -1.096  0.00  0.00    +0.000 OA
BRANCH  51  52
ATOM     52  C37 UNK     0      -4.691  -1.620  -1.730  0.00  0.00    +0.000 C 
ATOM     53  O10 UNK     0      -5.121  -1.183  -2.831  0.00  0.00    +0.000 OA
BRANCH  52  54
ATOM     54  C40 UNK     0      -5.343  -2.787  -1.097  0.00  0.00    +0.000 A 
ATOM     55  C42 UNK     0      -6.423  -3.438  -1.720  0.00  0.00    +0.000 A 
ATOM     56  C45 UNK     0      -7.043  -4.530  -1.103  0.00  0.00    +0.000 A 
ATOM     57  C47 UNK     0      -6.593  -4.981   0.140  0.00  0.00    +0.000 A 
ATOM     58  C46 UNK     0      -5.525  -4.338   0.768  0.00  0.00    +0.000 A 
ATOM     59  C43 UNK     0      -4.903  -3.249   0.152  0.00  0.00    +0.000 A 
ENDBRANCH  52  54
ENDBRANCH  51  52
ENDBRANCH   7  51
BRANCH   4  60
ATOM     60  O2  UNK     0      -2.263  -0.729   1.205  0.00  0.00    +0.000 OA
BRANCH  60  61
ATOM     61  C36 UNK     0      -2.194  -1.598   2.308  0.00  0.00    +0.000 C 
ATOM     62  C38 UNK     0      -1.556  -2.936   2.147  0.00  0.00    +0.000 C 
ATOM     63  O9  UNK     0      -2.690  -1.294   3.424  0.00  0.00    +0.000 OA
ENDBRANCH  60  61
ENDBRANCH   4  60
TORSDOF 17
