REMARK  Name = C:\Users\Maximilian\Desktop\Conformers\converted_pdb\conformers_pdb\Epigallocatechin Gallate_conf_5.pdb
REMARK  12 active torsions:
REMARK  status: ('A' for Active; 'I' for Inactive)
REMARK    1  A    between atoms: C12_2  and  O2_11
REMARK    2  A    between atoms: C13_3  and  C16_26
REMARK    3  A    between atoms: C18_7  and  O3_38
REMARK    4  A    between atoms: C23_10  and  O4_40
REMARK    5  A    between atoms: O2_11  and  C24_12
REMARK    6  A    between atoms: C24_12  and  C28_14
REMARK    7  A    between atoms: C32_16  and  O10_20
REMARK    8  A    between atoms: C33_17  and  O11_22
REMARK    9  A    between atoms: C31_18  and  O9_24
REMARK   10  A    between atoms: C26_28  and  O6_32
REMARK   11  A    between atoms: C27_29  and  O8_34
REMARK   12  A    between atoms: C25_30  and  O5_36
REMARK                            x       y       z     vdW  Elec       q    Type
REMARK                         _______ _______ _______ _____ _____    ______ ____
ROOT
ATOM      1  O1  UNK     0      -2.825  -1.046   0.540  0.00  0.00    +0.000 OA
ATOM      2  C12 UNK     0      -0.443  -1.009   0.084  0.00  0.00    +0.000 C 
ATOM      3  C13 UNK     0      -1.765  -0.228   0.047  0.00  0.00    +0.000 C 
ATOM      4  C14 UNK     0      -0.581  -2.308  -0.733  0.00  0.00    +0.000 C 
ATOM      5  C15 UNK     0      -1.841  -3.077  -0.391  0.00  0.00    +0.000 A 
ATOM      6  C17 UNK     0      -2.913  -2.409   0.239  0.00  0.00    +0.000 A 
ATOM      7  C18 UNK     0      -1.988  -4.442  -0.735  0.00  0.00    +0.000 A 
ATOM      8  C19 UNK     0      -4.072  -3.107   0.586  0.00  0.00    +0.000 A 
ATOM      9  C22 UNK     0      -3.156  -5.126  -0.379  0.00  0.00    +0.000 A 
ATOM     10  C23 UNK     0      -4.196  -4.464   0.284  0.00  0.00    +0.000 A 
ENDROOT
BRANCH   3  11
ATOM     11  C16 UNK     0      -1.665   1.039   0.865  0.00  0.00    +0.000 A 
ATOM     12  C20 UNK     0      -1.395   2.264   0.235  0.00  0.00    +0.000 A 
ATOM     13  C26 UNK     0      -1.244   3.434   0.989  0.00  0.00    +0.000 A 
ATOM     14  C27 UNK     0      -1.360   3.387   2.389  0.00  0.00    +0.000 A 
ATOM     15  C25 UNK     0      -1.617   2.160   3.026  0.00  0.00    +0.000 A 
ATOM     16  C21 UNK     0      -1.764   0.996   2.265  0.00  0.00    +0.000 A 
BRANCH  13  17
ATOM     17  O6  UNK     0      -0.973   4.644   0.352  0.00  0.00    +0.000 OA
ATOM     18  H47 UNK     0      -0.886   4.706  -0.656  0.00  0.00    +0.000 HD
ENDBRANCH  13  17
BRANCH  14  19
ATOM     19  O8  UNK     0      -1.217   4.545   3.154  0.00  0.00    +0.000 OA
ATOM     20  H48 UNK     0      -1.043   5.451   2.736  0.00  0.00    +0.000 HD
ENDBRANCH  14  19
BRANCH  15  21
ATOM     21  O5  UNK     0      -1.726   2.078   4.415  0.00  0.00    +0.000 OA
ATOM     22  H46 UNK     0      -1.620   2.889   5.012  0.00  0.00    +0.000 HD
ENDBRANCH  15  21
ENDBRANCH   3  11
BRANCH   7  23
ATOM     23  O3  UNK     0      -1.004  -5.144  -1.436  0.00  0.00    +0.000 OA
ATOM     24  H42 UNK     0      -0.163  -4.713  -1.796  0.00  0.00    +0.000 HD
ENDBRANCH   7  23
BRANCH  10  25
ATOM     25  O4  UNK     0      -5.358  -5.145   0.641  0.00  0.00    +0.000 OA
ATOM     26  H43 UNK     0      -5.479  -6.130   0.436  0.00  0.00    +0.000 HD
ENDBRANCH  10  25
BRANCH   2  27
ATOM     27  O2  UNK     0       0.599  -0.194  -0.456  0.00  0.00    +0.000 OA
BRANCH  27  28
ATOM     28  C24 UNK     0       1.963  -0.446  -0.269  0.00  0.00    +0.000 C 
ATOM     29  O7  UNK     0       2.338  -1.453   0.393  0.00  0.00    +0.000 OA
BRANCH  28  30
ATOM     30  C28 UNK     0       2.962   0.484  -0.840  0.00  0.00    +0.000 A 
ATOM     31  C29 UNK     0       4.335   0.221  -0.724  0.00  0.00    +0.000 A 
ATOM     32  C32 UNK     0       5.277   1.106  -1.264  0.00  0.00    +0.000 A 
ATOM     33  C33 UNK     0       4.858   2.270  -1.925  0.00  0.00    +0.000 A 
ATOM     34  C31 UNK     0       3.475   2.544  -2.044  0.00  0.00    +0.000 A 
ATOM     35  C30 UNK     0       2.545   1.650  -1.501  0.00  0.00    +0.000 A 
BRANCH  32  36
ATOM     36  O10 UNK     0       6.639   0.836  -1.145  0.00  0.00    +0.000 OA
ATOM     37  H50 UNK     0       6.976   0.005  -0.674  0.00  0.00    +0.000 HD
ENDBRANCH  32  36
BRANCH  33  38
ATOM     38  O11 UNK     0       5.839   3.119  -2.444  0.00  0.00    +0.000 OA
ATOM     39  H51 UNK     0       5.641   3.982  -2.930  0.00  0.00    +0.000 HD
ENDBRANCH  33  38
BRANCH  34  40
ATOM     40  O9  UNK     0       2.984   3.682  -2.687  0.00  0.00    +0.000 OA
ATOM     41  H49 UNK     0       3.566   4.384  -3.119  0.00  0.00    +0.000 HD
ENDBRANCH  34  40
ENDBRANCH  28  30
ENDBRANCH  27  28
ENDBRANCH   2  27
TORSDOF 12
