REMARK  Name = C:\Users\Maximilian\Desktop\Conformers\converted_pdb\conformers_pdb\Epigallocatechin Gallate_conf_6.pdb
REMARK  12 active torsions:
REMARK  status: ('A' for Active; 'I' for Inactive)
REMARK    1  A    between atoms: C12_2  and  O2_11
REMARK    2  A    between atoms: C13_3  and  C16_26
REMARK    3  A    between atoms: C18_7  and  O3_38
REMARK    4  A    between atoms: C23_10  and  O4_40
REMARK    5  A    between atoms: O2_11  and  C24_12
REMARK    6  A    between atoms: C24_12  and  C28_14
REMARK    7  A    between atoms: C32_16  and  O10_20
REMARK    8  A    between atoms: C33_17  and  O11_22
REMARK    9  A    between atoms: C31_18  and  O9_24
REMARK   10  A    between atoms: C26_28  and  O6_32
REMARK   11  A    between atoms: C27_29  and  O8_34
REMARK   12  A    between atoms: C25_30  and  O5_36
REMARK                            x       y       z     vdW  Elec       q    Type
REMARK                         _______ _______ _______ _____ _____    ______ ____
ROOT
ATOM      1  O1  UNK     0      -2.734   1.144   0.302  0.00  0.00    +0.000 OA
ATOM      2  C12 UNK     0      -0.320   1.403   0.236  0.00  0.00    +0.000 C 
ATOM      3  C13 UNK     0      -1.503   0.445   0.483  0.00  0.00    +0.000 C 
ATOM      4  C14 UNK     0      -0.430   2.611   1.180  0.00  0.00    +0.000 C 
ATOM      5  C15 UNK     0      -1.812   3.232   1.169  0.00  0.00    +0.000 A 
ATOM      6  C17 UNK     0      -2.911   2.466   0.725  0.00  0.00    +0.000 A 
ATOM      7  C18 UNK     0      -2.036   4.546   1.647  0.00  0.00    +0.000 A 
ATOM      8  C19 UNK     0      -4.191   3.026   0.686  0.00  0.00    +0.000 A 
ATOM      9  C22 UNK     0      -3.325   5.091   1.599  0.00  0.00    +0.000 A 
ATOM     10  C23 UNK     0      -4.399   4.340   1.117  0.00  0.00    +0.000 A 
ENDROOT
BRANCH   3  11
ATOM     11  C16 UNK     0      -1.455  -0.748  -0.442  0.00  0.00    +0.000 A 
ATOM     12  C20 UNK     0      -0.942  -1.972   0.014  0.00  0.00    +0.000 A 
ATOM     13  C26 UNK     0      -0.824  -3.064  -0.856  0.00  0.00    +0.000 A 
ATOM     14  C27 UNK     0      -1.224  -2.937  -2.198  0.00  0.00    +0.000 A 
ATOM     15  C25 UNK     0      -1.734  -1.712  -2.661  0.00  0.00    +0.000 A 
ATOM     16  C21 UNK     0      -1.843  -0.625  -1.787  0.00  0.00    +0.000 A 
BRANCH  13  17
ATOM     17  O6  UNK     0      -0.304  -4.272  -0.394  0.00  0.00    +0.000 OA
ATOM     18  H47 UNK     0      -0.001  -4.387   0.566  0.00  0.00    +0.000 HD
ENDBRANCH  13  17
BRANCH  14  19
ATOM     19  O8  UNK     0      -1.116  -4.015  -3.077  0.00  0.00    +0.000 OA
ATOM     20  H48 UNK     0      -0.752  -4.915  -2.787  0.00  0.00    +0.000 HD
ENDBRANCH  14  19
BRANCH  15  21
ATOM     21  O5  UNK     0      -2.133  -1.553  -3.987  0.00  0.00    +0.000 OA
ATOM     22  H46 UNK     0      -2.074  -2.306  -4.662  0.00  0.00    +0.000 HD
ENDBRANCH  15  21
ENDBRANCH   3  11
BRANCH   7  23
ATOM     23  O3  UNK     0      -1.011   5.329   2.182  0.00  0.00    +0.000 OA
ATOM     24  H42 UNK     0      -0.069   4.990   2.325  0.00  0.00    +0.000 HD
ENDBRANCH   7  23
BRANCH  10  25
ATOM     25  O4  UNK     0      -5.671   4.906   1.080  0.00  0.00    +0.000 OA
ATOM     26  H43 UNK     0      -6.472   4.387   0.738  0.00  0.00    +0.000 HD
ENDBRANCH  10  25
BRANCH   2  27
ATOM     27  O2  UNK     0       0.921   0.737   0.486  0.00  0.00    +0.000 OA
BRANCH  27  28
ATOM     28  C24 UNK     0       1.638   0.030  -0.488  0.00  0.00    +0.000 C 
ATOM     29  O7  UNK     0       1.333   0.144  -1.708  0.00  0.00    +0.000 OA
BRANCH  28  30
ATOM     30  C28 UNK     0       2.744  -0.864  -0.081  0.00  0.00    +0.000 A 
ATOM     31  C29 UNK     0       3.084  -0.995   1.275  0.00  0.00    +0.000 A 
ATOM     32  C32 UNK     0       4.116  -1.851   1.672  0.00  0.00    +0.000 A 
ATOM     33  C33 UNK     0       4.823  -2.593   0.710  0.00  0.00    +0.000 A 
ATOM     34  C31 UNK     0       4.488  -2.470  -0.649  0.00  0.00    +0.000 A 
ATOM     35  C30 UNK     0       3.453  -1.609  -1.039  0.00  0.00    +0.000 A 
BRANCH  32  36
ATOM     36  O10 UNK     0       4.424  -1.953   3.028  0.00  0.00    +0.000 OA
ATOM     37  H50 UNK     0       5.161  -2.558   3.370  0.00  0.00    +0.000 HD
ENDBRANCH  32  36
BRANCH  33  38
ATOM     38  O11 UNK     0       5.852  -3.445   1.115  0.00  0.00    +0.000 OA
ATOM     39  H51 UNK     0       6.386  -3.998   0.456  0.00  0.00    +0.000 HD
ENDBRANCH  33  38
BRANCH  34  40
ATOM     40  O9  UNK     0       5.184  -3.204  -1.608  0.00  0.00    +0.000 OA
ATOM     41  H49 UNK     0       4.962  -3.135  -2.595  0.00  0.00    +0.000 HD
ENDBRANCH  34  40
ENDBRANCH  28  30
ENDBRANCH  27  28
ENDBRANCH   2  27
TORSDOF 12
