REMARK  Name = C:\Users\Maximilian\Desktop\Conformers\converted_pdb\conformers_pdb\Epigallocatechin Gallate_conf_1.pdb
REMARK  12 active torsions:
REMARK  status: ('A' for Active; 'I' for Inactive)
REMARK    1  A    between atoms: C12_2  and  O2_11
REMARK    2  A    between atoms: C13_3  and  C16_26
REMARK    3  A    between atoms: C18_7  and  O3_38
REMARK    4  A    between atoms: C23_10  and  O4_40
REMARK    5  A    between atoms: O2_11  and  C24_12
REMARK    6  A    between atoms: C24_12  and  C28_14
REMARK    7  A    between atoms: C32_16  and  O10_20
REMARK    8  A    between atoms: C33_17  and  O11_22
REMARK    9  A    between atoms: C31_18  and  O9_24
REMARK   10  A    between atoms: C26_28  and  O6_32
REMARK   11  A    between atoms: C27_29  and  O8_34
REMARK   12  A    between atoms: C25_30  and  O5_36
REMARK                            x       y       z     vdW  Elec       q    Type
REMARK                         _______ _______ _______ _____ _____    ______ ____
ROOT
ATOM      1  O1  UNK     0      -2.541  -1.127  -0.905  0.00  0.00    +0.000 OA
ATOM      2  C12 UNK     0      -0.388  -1.289   0.210  0.00  0.00    +0.000 C 
ATOM      3  C13 UNK     0      -1.250  -0.524  -0.815  0.00  0.00    +0.000 C 
ATOM      4  C14 UNK     0      -0.298  -2.769  -0.196  0.00  0.00    +0.000 C 
ATOM      5  C15 UNK     0      -1.651  -3.368  -0.517  0.00  0.00    +0.000 A 
ATOM      6  C17 UNK     0      -2.723  -2.513  -0.858  0.00  0.00    +0.000 A 
ATOM      7  C18 UNK     0      -1.855  -4.768  -0.538  0.00  0.00    +0.000 A 
ATOM      8  C19 UNK     0      -3.985  -3.042  -1.136  0.00  0.00    +0.000 A 
ATOM      9  C22 UNK     0      -3.127  -5.280  -0.817  0.00  0.00    +0.000 A 
ATOM     10  C23 UNK     0      -4.193  -4.422  -1.112  0.00  0.00    +0.000 A 
ENDROOT
BRANCH   3  11
ATOM     11  C16 UNK     0      -1.394   0.933  -0.444  0.00  0.00    +0.000 A 
ATOM     12  C20 UNK     0      -0.596   1.902  -1.071  0.00  0.00    +0.000 A 
ATOM     13  C26 UNK     0      -0.665   3.246  -0.691  0.00  0.00    +0.000 A 
ATOM     14  C27 UNK     0      -1.555   3.636   0.338  0.00  0.00    +0.000 A 
ATOM     15  C25 UNK     0      -2.349   2.668   0.969  0.00  0.00    +0.000 A 
ATOM     16  C21 UNK     0      -2.265   1.324   0.583  0.00  0.00    +0.000 A 
BRANCH  13  17
ATOM     17  O6  UNK     0       0.168   4.152  -1.352  0.00  0.00    +0.000 OA
ATOM     18  H47 UNK     0       0.207   5.139  -1.145  0.00  0.00    +0.000 HD
ENDBRANCH  13  17
BRANCH  14  19
ATOM     19  O8  UNK     0      -1.678   4.962   0.761  0.00  0.00    +0.000 OA
ATOM     20  H48 UNK     0      -1.160   5.733   0.366  0.00  0.00    +0.000 HD
ENDBRANCH  14  19
BRANCH  15  21
ATOM     21  O5  UNK     0      -3.220   3.050   1.988  0.00  0.00    +0.000 OA
ATOM     22  H46 UNK     0      -3.806   2.376   2.467  0.00  0.00    +0.000 HD
ENDBRANCH  15  21
ENDBRANCH   3  11
BRANCH   7  23
ATOM     23  O3  UNK     0      -0.821  -5.675  -0.297  0.00  0.00    +0.000 OA
ATOM     24  H42 UNK     0       0.143  -5.397  -0.163  0.00  0.00    +0.000 HD
ENDBRANCH   7  23
BRANCH  10  25
ATOM     25  O4  UNK     0      -5.460  -4.931  -1.389  0.00  0.00    +0.000 OA
ATOM     26  H43 UNK     0      -5.643  -5.928  -1.382  0.00  0.00    +0.000 HD
ENDBRANCH  10  25
BRANCH   2  27
ATOM     27  O2  UNK     0       0.933  -0.744   0.257  0.00  0.00    +0.000 OA
BRANCH  27  28
ATOM     28  C24 UNK     0       1.320   0.295   1.113  0.00  0.00    +0.000 C 
ATOM     29  O7  UNK     0       0.561   0.658   2.054  0.00  0.00    +0.000 OA
BRANCH  28  30
ATOM     30  C28 UNK     0       2.616   0.975   0.903  0.00  0.00    +0.000 A 
ATOM     31  C29 UNK     0       3.464   0.574  -0.142  0.00  0.00    +0.000 A 
ATOM     32  C32 UNK     0       4.687   1.225  -0.359  0.00  0.00    +0.000 A 
ATOM     33  C33 UNK     0       5.071   2.289   0.474  0.00  0.00    +0.000 A 
ATOM     34  C31 UNK     0       4.229   2.696   1.517  0.00  0.00    +0.000 A 
ATOM     35  C30 UNK     0       3.008   2.043   1.729  0.00  0.00    +0.000 A 
BRANCH  32  36
ATOM     36  O10 UNK     0       5.521   0.818  -1.399  0.00  0.00    +0.000 OA
ATOM     37  H50 UNK     0       5.268   0.053  -2.015  0.00  0.00    +0.000 HD
ENDBRANCH  32  36
BRANCH  33  38
ATOM     38  O11 UNK     0       6.283   2.952   0.279  0.00  0.00    +0.000 OA
ATOM     39  H51 UNK     0       6.924   2.694  -0.462  0.00  0.00    +0.000 HD
ENDBRANCH  33  38
BRANCH  34  40
ATOM     40  O9  UNK     0       4.613   3.754   2.339  0.00  0.00    +0.000 OA
ATOM     41  H49 UNK     0       4.027   4.074   3.101  0.00  0.00    +0.000 HD
ENDBRANCH  34  40
ENDBRANCH  28  30
ENDBRANCH  27  28
ENDBRANCH   2  27
TORSDOF 12
