REMARK  Name = C:\Users\Maximilian\Desktop\Conformers\converted_pdb\conformers_pdb\Epigallocatechin Gallate_conf_15.pdb
REMARK  12 active torsions:
REMARK  status: ('A' for Active; 'I' for Inactive)
REMARK    1  A    between atoms: C12_2  and  O2_11
REMARK    2  A    between atoms: C13_3  and  C16_26
REMARK    3  A    between atoms: C18_7  and  O3_38
REMARK    4  A    between atoms: C23_10  and  O4_40
REMARK    5  A    between atoms: O2_11  and  C24_12
REMARK    6  A    between atoms: C24_12  and  C28_14
REMARK    7  A    between atoms: C32_16  and  O10_20
REMARK    8  A    between atoms: C33_17  and  O11_22
REMARK    9  A    between atoms: C31_18  and  O9_24
REMARK   10  A    between atoms: C26_28  and  O6_32
REMARK   11  A    between atoms: C27_29  and  O8_34
REMARK   12  A    between atoms: C25_30  and  O5_36
REMARK                            x       y       z     vdW  Elec       q    Type
REMARK                         _______ _______ _______ _____ _____    ______ ____
ROOT
ATOM      1  O1  UNK     0      -1.350   0.307  -1.455  0.00  0.00    +0.000 OA
ATOM      2  C12 UNK     0      -0.037   0.867   0.528  0.00  0.00    +0.000 C 
ATOM      3  C13 UNK     0      -0.909   1.390  -0.629  0.00  0.00    +0.000 C 
ATOM      4  C14 UNK     0      -0.770  -0.245   1.303  0.00  0.00    +0.000 C 
ATOM      5  C15 UNK     0      -1.330  -1.308   0.384  0.00  0.00    +0.000 A 
ATOM      6  C17 UNK     0      -1.590  -0.984  -0.966  0.00  0.00    +0.000 A 
ATOM      7  C18 UNK     0      -1.661  -2.600   0.858  0.00  0.00    +0.000 A 
ATOM      8  C19 UNK     0      -2.096  -1.952  -1.838  0.00  0.00    +0.000 A 
ATOM      9  C22 UNK     0      -2.162  -3.558  -0.032  0.00  0.00    +0.000 A 
ATOM     10  C23 UNK     0      -2.376  -3.239  -1.378  0.00  0.00    +0.000 A 
ENDROOT
BRANCH   3  11
ATOM     11  C16 UNK     0      -2.072   2.227  -0.126  0.00  0.00    +0.000 A 
ATOM     12  C20 UNK     0      -3.354   1.681   0.071  0.00  0.00    +0.000 A 
ATOM     13  C26 UNK     0      -4.396   2.469   0.578  0.00  0.00    +0.000 A 
ATOM     14  C27 UNK     0      -4.164   3.817   0.896  0.00  0.00    +0.000 A 
ATOM     15  C25 UNK     0      -2.890   4.367   0.712  0.00  0.00    +0.000 A 
ATOM     16  C21 UNK     0      -1.850   3.574   0.208  0.00  0.00    +0.000 A 
BRANCH  13  17
ATOM     17  O6  UNK     0      -5.662   1.914   0.769  0.00  0.00    +0.000 OA
ATOM     18  H47 UNK     0      -5.855   0.943   0.553  0.00  0.00    +0.000 HD
ENDBRANCH  13  17
BRANCH  14  19
ATOM     19  O8  UNK     0      -5.187   4.622   1.398  0.00  0.00    +0.000 OA
ATOM     20  H48 UNK     0      -6.126   4.270   1.549  0.00  0.00    +0.000 HD
ENDBRANCH  14  19
BRANCH  15  21
ATOM     21  O5  UNK     0      -2.663   5.704   1.035  0.00  0.00    +0.000 OA
ATOM     22  H46 UNK     0      -1.750   6.130   0.921  0.00  0.00    +0.000 HD
ENDBRANCH  15  21
ENDBRANCH   3  11
BRANCH   7  23
ATOM     23  O3  UNK     0      -1.520  -2.963   2.199  0.00  0.00    +0.000 OA
ATOM     24  H42 UNK     0      -1.249  -2.315   2.927  0.00  0.00    +0.000 HD
ENDBRANCH   7  23
BRANCH  10  25
ATOM     25  O4  UNK     0      -2.877  -4.192  -2.262  0.00  0.00    +0.000 OA
ATOM     26  H43 UNK     0      -3.104  -5.131  -1.956  0.00  0.00    +0.000 HD
ENDBRANCH  10  25
BRANCH   2  27
ATOM     27  O2  UNK     0       1.183   0.359  -0.017  0.00  0.00    +0.000 OA
BRANCH  27  28
ATOM     28  C24 UNK     0       2.342   0.140   0.738  0.00  0.00    +0.000 C 
ATOM     29  O7  UNK     0       2.375   0.463   1.958  0.00  0.00    +0.000 OA
BRANCH  28  30
ATOM     30  C28 UNK     0       3.531  -0.466   0.098  0.00  0.00    +0.000 A 
ATOM     31  C29 UNK     0       3.477  -0.882  -1.243  0.00  0.00    +0.000 A 
ATOM     32  C32 UNK     0       4.596  -1.453  -1.859  0.00  0.00    +0.000 A 
ATOM     33  C33 UNK     0       5.790  -1.615  -1.136  0.00  0.00    +0.000 A 
ATOM     34  C31 UNK     0       5.853  -1.203   0.206  0.00  0.00    +0.000 A 
ATOM     35  C30 UNK     0       4.727  -0.633   0.817  0.00  0.00    +0.000 A 
BRANCH  32  36
ATOM     36  O10 UNK     0       4.500  -1.855  -3.191  0.00  0.00    +0.000 OA
ATOM     37  H50 UNK     0       5.278  -2.278  -3.684  0.00  0.00    +0.000 HD
ENDBRANCH  32  36
BRANCH  33  38
ATOM     38  O11 UNK     0       6.902  -2.185  -1.759  0.00  0.00    +0.000 OA
ATOM     39  H51 UNK     0       7.782  -2.318  -1.276  0.00  0.00    +0.000 HD
ENDBRANCH  33  38
BRANCH  34  40
ATOM     40  O9  UNK     0       7.034  -1.363   0.930  0.00  0.00    +0.000 OA
ATOM     41  H49 UNK     0       7.107  -1.074   1.899  0.00  0.00    +0.000 HD
ENDBRANCH  34  40
ENDBRANCH  28  30
ENDBRANCH  27  28
ENDBRANCH   2  27
TORSDOF 12
