REMARK  Name = C:\Users\Maximilian\Desktop\Conformers\converted_pdb\conformers_pdb\Epigallocatechin Gallate_conf_3.pdb
REMARK  12 active torsions:
REMARK  status: ('A' for Active; 'I' for Inactive)
REMARK    1  A    between atoms: C12_2  and  O2_11
REMARK    2  A    between atoms: C13_3  and  C16_26
REMARK    3  A    between atoms: C18_7  and  O3_38
REMARK    4  A    between atoms: C23_10  and  O4_40
REMARK    5  A    between atoms: O2_11  and  C24_12
REMARK    6  A    between atoms: C24_12  and  C28_14
REMARK    7  A    between atoms: C32_16  and  O10_20
REMARK    8  A    between atoms: C33_17  and  O11_22
REMARK    9  A    between atoms: C31_18  and  O9_24
REMARK   10  A    between atoms: C26_28  and  O6_32
REMARK   11  A    between atoms: C27_29  and  O8_34
REMARK   12  A    between atoms: C25_30  and  O5_36
REMARK                            x       y       z     vdW  Elec       q    Type
REMARK                         _______ _______ _______ _____ _____    ______ ____
ROOT
ATOM      1  O1  UNK     0      -2.669  -1.309  -0.224  0.00  0.00    +0.000 OA
ATOM      2  C12 UNK     0      -0.420  -1.228   0.690  0.00  0.00    +0.000 C 
ATOM      3  C13 UNK     0      -1.359  -0.788  -0.450  0.00  0.00    +0.000 C 
ATOM      4  C14 UNK     0      -0.412  -2.763   0.787  0.00  0.00    +0.000 C 
ATOM      5  C15 UNK     0      -1.808  -3.351   0.801  0.00  0.00    +0.000 A 
ATOM      6  C17 UNK     0      -2.884  -2.591   0.292  0.00  0.00    +0.000 A 
ATOM      7  C18 UNK     0      -2.052  -4.667   1.260  0.00  0.00    +0.000 A 
ATOM      8  C19 UNK     0      -4.183  -3.104   0.315  0.00  0.00    +0.000 A 
ATOM      9  C22 UNK     0      -3.360  -5.165   1.276  0.00  0.00    +0.000 A 
ATOM     10  C23 UNK     0      -4.424  -4.390   0.811  0.00  0.00    +0.000 A 
ENDROOT
BRANCH   3  11
ATOM     11  C16 UNK     0      -1.424   0.716  -0.569  0.00  0.00    +0.000 A 
ATOM     12  C20 UNK     0      -2.175   1.472   0.343  0.00  0.00    +0.000 A 
ATOM     13  C26 UNK     0      -2.184   2.868   0.274  0.00  0.00    +0.000 A 
ATOM     14  C27 UNK     0      -1.428   3.533  -0.709  0.00  0.00    +0.000 A 
ATOM     15  C25 UNK     0      -0.658   2.776  -1.625  0.00  0.00    +0.000 A 
ATOM     16  C21 UNK     0      -0.667   1.379  -1.546  0.00  0.00    +0.000 A 
BRANCH  13  17
ATOM     17  O6  UNK     0      -2.949   3.579   1.199  0.00  0.00    +0.000 OA
ATOM     18  H47 UNK     0      -2.993   4.591   1.200  0.00  0.00    +0.000 HD
ENDBRANCH  13  17
BRANCH  14  19
ATOM     19  O8  UNK     0      -1.466   4.930  -0.744  0.00  0.00    +0.000 OA
ATOM     20  H48 UNK     0      -0.969   5.494  -1.418  0.00  0.00    +0.000 HD
ENDBRANCH  14  19
BRANCH  15  21
ATOM     21  O5  UNK     0       0.131   3.364  -2.616  0.00  0.00    +0.000 OA
ATOM     22  H46 UNK     0       0.223   4.360  -2.751  0.00  0.00    +0.000 HD
ENDBRANCH  15  21
ENDBRANCH   3  11
BRANCH   7  23
ATOM     23  O3  UNK     0      -1.024  -5.507   1.695  0.00  0.00    +0.000 OA
ATOM     24  H42 UNK     0      -0.045  -5.259   1.646  0.00  0.00    +0.000 HD
ENDBRANCH   7  23
BRANCH  10  25
ATOM     25  O4  UNK     0      -5.717  -4.909   0.839  0.00  0.00    +0.000 OA
ATOM     26  H43 UNK     0      -6.510  -4.373   0.507  0.00  0.00    +0.000 HD
ENDBRANCH  10  25
BRANCH   2  27
ATOM     27  O2  UNK     0       0.914  -0.778   0.440  0.00  0.00    +0.000 OA
BRANCH  27  28
ATOM     28  C24 UNK     0       1.415   0.458   0.869  0.00  0.00    +0.000 C 
ATOM     29  O7  UNK     0       0.766   1.152   1.700  0.00  0.00    +0.000 OA
BRANCH  28  30
ATOM     30  C28 UNK     0       2.702   0.953   0.335  0.00  0.00    +0.000 A 
ATOM     31  C29 UNK     0       3.205   2.207   0.724  0.00  0.00    +0.000 A 
ATOM     32  C32 UNK     0       4.417   2.682   0.203  0.00  0.00    +0.000 A 
ATOM     33  C33 UNK     0       5.139   1.902  -0.716  0.00  0.00    +0.000 A 
ATOM     34  C31 UNK     0       4.640   0.649  -1.109  0.00  0.00    +0.000 A 
ATOM     35  C30 UNK     0       3.430   0.182  -0.586  0.00  0.00    +0.000 A 
BRANCH  32  36
ATOM     36  O10 UNK     0       4.905   3.928   0.596  0.00  0.00    +0.000 OA
ATOM     37  H50 UNK     0       4.404   4.510   1.257  0.00  0.00    +0.000 HD
ENDBRANCH  32  36
BRANCH  33  38
ATOM     38  O11 UNK     0       6.347   2.360  -1.243  0.00  0.00    +0.000 OA
ATOM     39  H51 UNK     0       6.743   3.257  -0.987  0.00  0.00    +0.000 HD
ENDBRANCH  33  38
BRANCH  34  40
ATOM     40  O9  UNK     0       5.333  -0.147  -2.021  0.00  0.00    +0.000 OA
ATOM     41  H49 UNK     0       6.212   0.143  -2.431  0.00  0.00    +0.000 HD
ENDBRANCH  34  40
ENDBRANCH  28  30
ENDBRANCH  27  28
ENDBRANCH   2  27
TORSDOF 12
