REMARK  Name = C:\Users\Maximilian\Desktop\Conformers\converted_pdb\conformers_pdb\Epigallocatechin Gallate_conf_2.pdb
REMARK  12 active torsions:
REMARK  status: ('A' for Active; 'I' for Inactive)
REMARK    1  A    between atoms: C12_2  and  O2_11
REMARK    2  A    between atoms: C13_3  and  C16_26
REMARK    3  A    between atoms: C18_7  and  O3_38
REMARK    4  A    between atoms: C23_10  and  O4_40
REMARK    5  A    between atoms: O2_11  and  C24_12
REMARK    6  A    between atoms: C24_12  and  C28_14
REMARK    7  A    between atoms: C32_16  and  O10_20
REMARK    8  A    between atoms: C33_17  and  O11_22
REMARK    9  A    between atoms: C31_18  and  O9_24
REMARK   10  A    between atoms: C26_28  and  O6_32
REMARK   11  A    between atoms: C27_29  and  O8_34
REMARK   12  A    between atoms: C25_30  and  O5_36
REMARK                            x       y       z     vdW  Elec       q    Type
REMARK                         _______ _______ _______ _____ _____    ______ ____
ROOT
ATOM      1  O1  UNK     0      -2.804  -1.273   0.059  0.00  0.00    +0.000 OA
ATOM      2  C12 UNK     0      -0.388  -1.066   0.121  0.00  0.00    +0.000 C 
ATOM      3  C13 UNK     0      -1.714  -0.445  -0.346  0.00  0.00    +0.000 C 
ATOM      4  C14 UNK     0      -0.254  -2.490  -0.450  0.00  0.00    +0.000 C 
ATOM      5  C15 UNK     0      -1.503  -3.319  -0.234  0.00  0.00    +0.000 A 
ATOM      6  C17 UNK     0      -2.731  -2.669   0.022  0.00  0.00    +0.000 A 
ATOM      7  C18 UNK     0      -1.478  -4.731  -0.327  0.00  0.00    +0.000 A 
ATOM      8  C19 UNK     0      -3.887  -3.417   0.259  0.00  0.00    +0.000 A 
ATOM      9  C22 UNK     0      -2.646  -5.463  -0.085  0.00  0.00    +0.000 A 
ATOM     10  C23 UNK     0      -3.845  -4.814   0.214  0.00  0.00    +0.000 A 
ENDROOT
BRANCH   3  11
ATOM     11  C16 UNK     0      -1.884   0.948   0.215  0.00  0.00    +0.000 A 
ATOM     12  C20 UNK     0      -1.517   2.063  -0.553  0.00  0.00    +0.000 A 
ATOM     13  C26 UNK     0      -1.613   3.359  -0.033  0.00  0.00    +0.000 A 
ATOM     14  C27 UNK     0      -2.086   3.550   1.287  0.00  0.00    +0.000 A 
ATOM     15  C25 UNK     0      -2.435   2.429   2.064  0.00  0.00    +0.000 A 
ATOM     16  C21 UNK     0      -2.329   1.142   1.530  0.00  0.00    +0.000 A 
BRANCH  13  17
ATOM     17  O6  UNK     0      -1.224   4.418  -0.857  0.00  0.00    +0.000 OA
ATOM     18  H47 UNK     0      -1.220   5.386  -0.572  0.00  0.00    +0.000 HD
ENDBRANCH  13  17
BRANCH  14  19
ATOM     19  O8  UNK     0      -2.220   4.820   1.853  0.00  0.00    +0.000 OA
ATOM     20  H48 UNK     0      -2.006   5.682   1.372  0.00  0.00    +0.000 HD
ENDBRANCH  14  19
BRANCH  15  21
ATOM     21  O5  UNK     0      -2.887   2.576   3.375  0.00  0.00    +0.000 OA
ATOM     22  H46 UNK     0      -2.975   3.481   3.820  0.00  0.00    +0.000 HD
ENDBRANCH  15  21
ENDBRANCH   3  11
BRANCH   7  23
ATOM     23  O3  UNK     0      -0.320  -5.434  -0.667  0.00  0.00    +0.000 OA
ATOM     24  H42 UNK     0       0.546  -4.984  -0.933  0.00  0.00    +0.000 HD
ENDBRANCH   7  23
BRANCH  10  25
ATOM     25  O4  UNK     0      -4.992  -5.566   0.456  0.00  0.00    +0.000 OA
ATOM     26  H43 UNK     0      -5.878  -5.126   0.673  0.00  0.00    +0.000 HD
ENDBRANCH  10  25
BRANCH   2  27
ATOM     27  O2  UNK     0       0.697  -0.249  -0.321  0.00  0.00    +0.000 OA
BRANCH  27  28
ATOM     28  C24 UNK     0       1.994  -0.326   0.200  0.00  0.00    +0.000 C 
ATOM     29  O7  UNK     0       2.272  -1.182   1.084  0.00  0.00    +0.000 OA
BRANCH  28  30
ATOM     30  C28 UNK     0       3.029   0.615  -0.278  0.00  0.00    +0.000 A 
ATOM     31  C29 UNK     0       2.693   1.635  -1.183  0.00  0.00    +0.000 A 
ATOM     32  C32 UNK     0       3.661   2.539  -1.631  0.00  0.00    +0.000 A 
ATOM     33  C33 UNK     0       4.987   2.429  -1.179  0.00  0.00    +0.000 A 
ATOM     34  C31 UNK     0       5.334   1.410  -0.277  0.00  0.00    +0.000 A 
ATOM     35  C30 UNK     0       4.357   0.510   0.170  0.00  0.00    +0.000 A 
BRANCH  32  36
ATOM     36  O10 UNK     0       3.285   3.541  -2.525  0.00  0.00    +0.000 OA
ATOM     37  H50 UNK     0       3.946   4.220  -2.882  0.00  0.00    +0.000 HD
ENDBRANCH  32  36
BRANCH  33  38
ATOM     38  O11 UNK     0       5.946   3.336  -1.632  0.00  0.00    +0.000 OA
ATOM     39  H51 UNK     0       6.914   3.291  -1.337  0.00  0.00    +0.000 HD
ENDBRANCH  33  38
BRANCH  34  40
ATOM     40  O9  UNK     0       6.649   1.295   0.172  0.00  0.00    +0.000 OA
ATOM     41  H49 UNK     0       6.925   0.572   0.827  0.00  0.00    +0.000 HD
ENDBRANCH  34  40
ENDBRANCH  28  30
ENDBRANCH  27  28
ENDBRANCH   2  27
TORSDOF 12
