REMARK  Name = C:\Users\Maximilian\Desktop\Conformers\converted_pdb\conformers_pdb\Epigallocatechin Gallate_conf_9.pdb
REMARK  12 active torsions:
REMARK  status: ('A' for Active; 'I' for Inactive)
REMARK    1  A    between atoms: C12_2  and  O2_11
REMARK    2  A    between atoms: C13_3  and  C16_26
REMARK    3  A    between atoms: C18_7  and  O3_38
REMARK    4  A    between atoms: C23_10  and  O4_40
REMARK    5  A    between atoms: O2_11  and  C24_12
REMARK    6  A    between atoms: C24_12  and  C28_14
REMARK    7  A    between atoms: C32_16  and  O10_20
REMARK    8  A    between atoms: C33_17  and  O11_22
REMARK    9  A    between atoms: C31_18  and  O9_24
REMARK   10  A    between atoms: C26_28  and  O6_32
REMARK   11  A    between atoms: C27_29  and  O8_34
REMARK   12  A    between atoms: C25_30  and  O5_36
REMARK                            x       y       z     vdW  Elec       q    Type
REMARK                         _______ _______ _______ _____ _____    ______ ____
ROOT
ATOM      1  O1  UNK     0      -1.679   0.353   1.067  0.00  0.00    +0.000 OA
ATOM      2  C12 UNK     0      -0.161  -0.979  -0.323  0.00  0.00    +0.000 C 
ATOM      3  C13 UNK     0      -1.351  -0.981   0.659  0.00  0.00    +0.000 C 
ATOM      4  C14 UNK     0      -0.428  -0.010  -1.491  0.00  0.00    +0.000 C 
ATOM      5  C15 UNK     0      -0.836   1.356  -0.995  0.00  0.00    +0.000 A 
ATOM      6  C17 UNK     0      -1.466   1.479   0.260  0.00  0.00    +0.000 A 
ATOM      7  C18 UNK     0      -0.660   2.498  -1.798  0.00  0.00    +0.000 A 
ATOM      8  C19 UNK     0      -1.878   2.734   0.717  0.00  0.00    +0.000 A 
ATOM      9  C22 UNK     0      -1.079   3.751  -1.329  0.00  0.00    +0.000 A 
ATOM     10  C23 UNK     0      -1.684   3.872  -0.075  0.00  0.00    +0.000 A 
ENDROOT
BRANCH   3  11
ATOM     11  C16 UNK     0      -2.556  -1.703   0.084  0.00  0.00    +0.000 A 
ATOM     12  C20 UNK     0      -3.595  -1.013  -0.568  0.00  0.00    +0.000 A 
ATOM     13  C26 UNK     0      -4.678  -1.711  -1.120  0.00  0.00    +0.000 A 
ATOM     14  C27 UNK     0      -4.731  -3.107  -1.032  0.00  0.00    +0.000 A 
ATOM     15  C25 UNK     0      -3.695  -3.807  -0.393  0.00  0.00    +0.000 A 
ATOM     16  C21 UNK     0      -2.614  -3.105   0.156  0.00  0.00    +0.000 A 
BRANCH  13  17
ATOM     17  O6  UNK     0      -5.705  -1.021  -1.761  0.00  0.00    +0.000 OA
ATOM     18  H47 UNK     0      -5.696  -0.011  -1.844  0.00  0.00    +0.000 HD
ENDBRANCH  13  17
BRANCH  14  19
ATOM     19  O8  UNK     0      -5.818  -3.784  -1.586  0.00  0.00    +0.000 OA
ATOM     20  H48 UNK     0      -5.901  -4.792  -1.548  0.00  0.00    +0.000 HD
ENDBRANCH  14  19
BRANCH  15  21
ATOM     21  O5  UNK     0      -3.741  -5.198  -0.308  0.00  0.00    +0.000 OA
ATOM     22  H46 UNK     0      -3.006  -5.727   0.147  0.00  0.00    +0.000 HD
ENDBRANCH  15  21
ENDBRANCH   3  11
BRANCH   7  23
ATOM     23  O3  UNK     0      -0.073   2.386  -3.058  0.00  0.00    +0.000 OA
ATOM     24  H42 UNK     0       0.064   3.194  -3.654  0.00  0.00    +0.000 HD
ENDBRANCH   7  23
BRANCH  10  25
ATOM     25  O4  UNK     0      -2.092   5.126   0.373  0.00  0.00    +0.000 OA
ATOM     26  H43 UNK     0      -2.534   5.248   1.277  0.00  0.00    +0.000 HD
ENDBRANCH  10  25
BRANCH   2  27
ATOM     27  O2  UNK     0       1.013  -0.575   0.386  0.00  0.00    +0.000 OA
BRANCH  27  28
ATOM     28  C24 UNK     0       2.315  -0.768  -0.091  0.00  0.00    +0.000 C 
ATOM     29  O7  UNK     0       2.511  -1.417  -1.156  0.00  0.00    +0.000 OA
BRANCH  28  30
ATOM     30  C28 UNK     0       3.460  -0.210   0.661  0.00  0.00    +0.000 A 
ATOM     31  C29 UNK     0       4.778  -0.410   0.216  0.00  0.00    +0.000 A 
ATOM     32  C32 UNK     0       5.861   0.124   0.928  0.00  0.00    +0.000 A 
ATOM     33  C33 UNK     0       5.632   0.869   2.097  0.00  0.00    +0.000 A 
ATOM     34  C31 UNK     0       4.317   1.073   2.547  0.00  0.00    +0.000 A 
ATOM     35  C30 UNK     0       3.242   0.536   1.831  0.00  0.00    +0.000 A 
BRANCH  32  36
ATOM     36  O10 UNK     0       7.164  -0.082   0.476  0.00  0.00    +0.000 OA
ATOM     37  H50 UNK     0       7.357  -0.615  -0.364  0.00  0.00    +0.000 HD
ENDBRANCH  32  36
BRANCH  33  38
ATOM     38  O11 UNK     0       6.699   1.408   2.818  0.00  0.00    +0.000 OA
ATOM     39  H51 UNK     0       7.662   1.286   2.530  0.00  0.00    +0.000 HD
ENDBRANCH  33  38
BRANCH  34  40
ATOM     40  O9  UNK     0       4.057   1.808   3.703  0.00  0.00    +0.000 OA
ATOM     41  H49 UNK     0       4.798   2.219   4.259  0.00  0.00    +0.000 HD
ENDBRANCH  34  40
ENDBRANCH  28  30
ENDBRANCH  27  28
ENDBRANCH   2  27
TORSDOF 12
