REMARK  Name = C:\Users\Maximilian\Desktop\Conformers\converted_pdb\conformers_pdb\Epigallocatechin Gallate_conf_4.pdb
REMARK  12 active torsions:
REMARK  status: ('A' for Active; 'I' for Inactive)
REMARK    1  A    between atoms: C12_2  and  O2_11
REMARK    2  A    between atoms: C13_3  and  C16_26
REMARK    3  A    between atoms: C18_7  and  O3_38
REMARK    4  A    between atoms: C23_10  and  O4_40
REMARK    5  A    between atoms: O2_11  and  C24_12
REMARK    6  A    between atoms: C24_12  and  C28_14
REMARK    7  A    between atoms: C32_16  and  O10_20
REMARK    8  A    between atoms: C33_17  and  O11_22
REMARK    9  A    between atoms: C31_18  and  O9_24
REMARK   10  A    between atoms: C26_28  and  O6_32
REMARK   11  A    between atoms: C27_29  and  O8_34
REMARK   12  A    between atoms: C25_30  and  O5_36
REMARK                            x       y       z     vdW  Elec       q    Type
REMARK                         _______ _______ _______ _____ _____    ______ ____
ROOT
ATOM      1  O1  UNK     0      -2.774  -1.181   0.418  0.00  0.00    +0.000 OA
ATOM      2  C12 UNK     0      -0.417  -0.961  -0.144  0.00  0.00    +0.000 C 
ATOM      3  C13 UNK     0      -1.757  -0.238   0.075  0.00  0.00    +0.000 C 
ATOM      4  C14 UNK     0      -0.584  -2.040  -1.229  0.00  0.00    +0.000 C 
ATOM      5  C15 UNK     0      -1.776  -2.929  -0.959  0.00  0.00    +0.000 A 
ATOM      6  C17 UNK     0      -2.836  -2.454  -0.160  0.00  0.00    +0.000 A 
ATOM      7  C18 UNK     0      -1.871  -4.204  -1.549  0.00  0.00    +0.000 A 
ATOM      8  C19 UNK     0      -3.951  -3.263   0.081  0.00  0.00    +0.000 A 
ATOM      9  C22 UNK     0      -2.997  -5.004  -1.305  0.00  0.00    +0.000 A 
ATOM     10  C23 UNK     0      -4.033  -4.539  -0.490  0.00  0.00    +0.000 A 
ENDROOT
BRANCH   3  11
ATOM     11  C16 UNK     0      -1.632   0.806   1.161  0.00  0.00    +0.000 A 
ATOM     12  C20 UNK     0      -1.405   2.149   0.821  0.00  0.00    +0.000 A 
ATOM     13  C26 UNK     0      -1.230   3.116   1.820  0.00  0.00    +0.000 A 
ATOM     14  C27 UNK     0      -1.276   2.741   3.173  0.00  0.00    +0.000 A 
ATOM     15  C25 UNK     0      -1.488   1.400   3.518  0.00  0.00    +0.000 A 
ATOM     16  C21 UNK     0      -1.658   0.436   2.516  0.00  0.00    +0.000 A 
BRANCH  13  17
ATOM     17  O6  UNK     0      -1.006   4.448   1.471  0.00  0.00    +0.000 OA
ATOM     18  H47 UNK     0      -0.963   4.743   0.503  0.00  0.00    +0.000 HD
ENDBRANCH  13  17
BRANCH  14  19
ATOM     19  O8  UNK     0      -1.109   3.687   4.185  0.00  0.00    +0.000 OA
ATOM     20  H48 UNK     0      -0.952   4.668   3.986  0.00  0.00    +0.000 HD
ENDBRANCH  14  19
BRANCH  15  21
ATOM     21  O5  UNK     0      -1.524   1.032   4.862  0.00  0.00    +0.000 OA
ATOM     22  H46 UNK     0      -1.674   0.070   5.145  0.00  0.00    +0.000 HD
ENDBRANCH  15  21
ENDBRANCH   3  11
BRANCH   7  23
ATOM     23  O3  UNK     0      -0.848  -4.672  -2.374  0.00  0.00    +0.000 OA
ATOM     24  H42 UNK     0      -0.894  -5.586  -2.809  0.00  0.00    +0.000 HD
ENDBRANCH   7  23
BRANCH  10  25
ATOM     25  O4  UNK     0      -5.141  -5.350  -0.258  0.00  0.00    +0.000 OA
ATOM     26  H43 UNK     0      -5.910  -5.042   0.327  0.00  0.00    +0.000 HD
ENDBRANCH  10  25
BRANCH   2  27
ATOM     27  O2  UNK     0       0.570  -0.008  -0.542  0.00  0.00    +0.000 OA
BRANCH  27  28
ATOM     28  C24 UNK     0       1.948  -0.245  -0.490  0.00  0.00    +0.000 C 
ATOM     29  O7  UNK     0       2.386  -1.364  -0.105  0.00  0.00    +0.000 OA
BRANCH  28  30
ATOM     30  C28 UNK     0       2.888   0.830  -0.876  0.00  0.00    +0.000 A 
ATOM     31  C29 UNK     0       4.275   0.603  -0.887  0.00  0.00    +0.000 A 
ATOM     32  C32 UNK     0       5.162   1.626  -1.248  0.00  0.00    +0.000 A 
ATOM     33  C33 UNK     0       4.667   2.893  -1.601  0.00  0.00    +0.000 A 
ATOM     34  C31 UNK     0       3.281   3.126  -1.590  0.00  0.00    +0.000 A 
ATOM     35  C30 UNK     0       2.402   2.100  -1.230  0.00  0.00    +0.000 A 
BRANCH  32  36
ATOM     36  O10 UNK     0       6.536   1.388  -1.257  0.00  0.00    +0.000 OA
ATOM     37  H50 UNK     0       6.920   0.484  -1.007  0.00  0.00    +0.000 HD
ENDBRANCH  32  36
BRANCH  33  38
ATOM     38  O11 UNK     0       5.537   3.922  -1.962  0.00  0.00    +0.000 OA
ATOM     39  H51 UNK     0       6.542   3.798  -1.984  0.00  0.00    +0.000 HD
ENDBRANCH  33  38
BRANCH  34  40
ATOM     40  O9  UNK     0       2.758   4.373  -1.933  0.00  0.00    +0.000 OA
ATOM     41  H49 UNK     0       3.350   5.150  -2.201  0.00  0.00    +0.000 HD
ENDBRANCH  34  40
ENDBRANCH  28  30
ENDBRANCH  27  28
ENDBRANCH   2  27
TORSDOF 12
