REMARK  Name = C:\Users\Maximilian\Desktop\Conformers\converted_pdb\conformers_pdb\Epigallocatechin Gallate_conf_10.pdb
REMARK  12 active torsions:
REMARK  status: ('A' for Active; 'I' for Inactive)
REMARK    1  A    between atoms: C12_2  and  O2_11
REMARK    2  A    between atoms: C13_3  and  C16_26
REMARK    3  A    between atoms: C18_7  and  O3_38
REMARK    4  A    between atoms: C23_10  and  O4_40
REMARK    5  A    between atoms: O2_11  and  C24_12
REMARK    6  A    between atoms: C24_12  and  C28_14
REMARK    7  A    between atoms: C32_16  and  O10_20
REMARK    8  A    between atoms: C33_17  and  O11_22
REMARK    9  A    between atoms: C31_18  and  O9_24
REMARK   10  A    between atoms: C26_28  and  O6_32
REMARK   11  A    between atoms: C27_29  and  O8_34
REMARK   12  A    between atoms: C25_30  and  O5_36
REMARK                            x       y       z     vdW  Elec       q    Type
REMARK                         _______ _______ _______ _____ _____    ______ ____
ROOT
ATOM      1  O1  UNK     0      -0.997  -0.060  -1.388  0.00  0.00    +0.000 OA
ATOM      2  C12 UNK     0      -0.307   0.359   0.920  0.00  0.00    +0.000 C 
ATOM      3  C13 UNK     0      -0.949   0.935  -0.361  0.00  0.00    +0.000 C 
ATOM      4  C14 UNK     0      -1.016  -0.936   1.346  0.00  0.00    +0.000 C 
ATOM      5  C15 UNK     0      -1.161  -1.914   0.200  0.00  0.00    +0.000 A 
ATOM      6  C17 UNK     0      -1.138  -1.429  -1.126  0.00  0.00    +0.000 A 
ATOM      7  C18 UNK     0      -1.381  -3.294   0.425  0.00  0.00    +0.000 A 
ATOM      8  C19 UNK     0      -1.255  -2.313  -2.201  0.00  0.00    +0.000 A 
ATOM      9  C22 UNK     0      -1.489  -4.165  -0.664  0.00  0.00    +0.000 A 
ATOM     10  C23 UNK     0      -1.424  -3.683  -1.973  0.00  0.00    +0.000 A 
ENDROOT
BRANCH   3  11
ATOM     11  C16 UNK     0      -2.319   1.528  -0.081  0.00  0.00    +0.000 A 
ATOM     12  C20 UNK     0      -3.507   0.816  -0.332  0.00  0.00    +0.000 A 
ATOM     13  C26 UNK     0      -4.752   1.376  -0.029  0.00  0.00    +0.000 A 
ATOM     14  C27 UNK     0      -4.827   2.660   0.537  0.00  0.00    +0.000 A 
ATOM     15  C25 UNK     0      -3.647   3.376   0.797  0.00  0.00    +0.000 A 
ATOM     16  C21 UNK     0      -2.403   2.808   0.491  0.00  0.00    +0.000 A 
BRANCH  13  17
ATOM     17  O6  UNK     0      -5.906   0.638  -0.296  0.00  0.00    +0.000 OA
ATOM     18  H47 UNK     0      -6.832   0.993  -0.091  0.00  0.00    +0.000 HD
ENDBRANCH  13  17
BRANCH  14  19
ATOM     19  O8  UNK     0      -6.074   3.210   0.835  0.00  0.00    +0.000 OA
ATOM     20  H48 UNK     0      -6.174   4.132   1.242  0.00  0.00    +0.000 HD
ENDBRANCH  14  19
BRANCH  15  21
ATOM     21  O5  UNK     0      -3.713   4.650   1.360  0.00  0.00    +0.000 OA
ATOM     22  H46 UNK     0      -2.877   5.187   1.558  0.00  0.00    +0.000 HD
ENDBRANCH  15  21
ENDBRANCH   3  11
BRANCH   7  23
ATOM     23  O3  UNK     0      -1.509  -3.829   1.709  0.00  0.00    +0.000 OA
ATOM     24  H42 UNK     0      -1.534  -3.265   2.548  0.00  0.00    +0.000 HD
ENDBRANCH   7  23
BRANCH  10  25
ATOM     25  O4  UNK     0      -1.536  -4.571  -3.040  0.00  0.00    +0.000 OA
ATOM     26  H43 UNK     0      -1.497  -4.253  -4.001  0.00  0.00    +0.000 HD
ENDBRANCH  10  25
BRANCH   2  27
ATOM     27  O2  UNK     0       1.072   0.067   0.685  0.00  0.00    +0.000 OA
BRANCH  27  28
ATOM     28  C24 UNK     0       2.075   1.042   0.622  0.00  0.00    +0.000 C 
ATOM     29  O7  UNK     0       1.795   2.254   0.833  0.00  0.00    +0.000 OA
BRANCH  28  30
ATOM     30  C28 UNK     0       3.466   0.643   0.315  0.00  0.00    +0.000 A 
ATOM     31  C29 UNK     0       3.782  -0.707   0.092  0.00  0.00    +0.000 A 
ATOM     32  C32 UNK     0       5.093  -1.102  -0.197  0.00  0.00    +0.000 A 
ATOM     33  C33 UNK     0       6.118  -0.129  -0.267  0.00  0.00    +0.000 A 
ATOM     34  C31 UNK     0       5.805   1.220  -0.047  0.00  0.00    +0.000 A 
ATOM     35  C30 UNK     0       4.489   1.602   0.242  0.00  0.00    +0.000 A 
BRANCH  32  36
ATOM     36  O10 UNK     0       5.330  -2.463  -0.405  0.00  0.00    +0.000 OA
ATOM     37  H50 UNK     0       6.237  -2.853  -0.619  0.00  0.00    +0.000 HD
ENDBRANCH  32  36
BRANCH  33  38
ATOM     38  O11 UNK     0       7.447  -0.456  -0.549  0.00  0.00    +0.000 OA
ATOM     39  H51 UNK     0       7.774  -1.396  -0.721  0.00  0.00    +0.000 HD
ENDBRANCH  33  38
BRANCH  34  40
ATOM     40  O9  UNK     0       6.814   2.180  -0.117  0.00  0.00    +0.000 OA
ATOM     41  H49 UNK     0       6.623   3.163   0.035  0.00  0.00    +0.000 HD
ENDBRANCH  34  40
ENDBRANCH  28  30
ENDBRANCH  27  28
ENDBRANCH   2  27
TORSDOF 12
