REMARK  Name = C:\Users\Maximilian\Desktop\Conformers\converted_pdb\conformers_pdb\Epigallocatechin Gallate_conf_13.pdb
REMARK  12 active torsions:
REMARK  status: ('A' for Active; 'I' for Inactive)
REMARK    1  A    between atoms: C12_2  and  O2_11
REMARK    2  A    between atoms: C13_3  and  C16_26
REMARK    3  A    between atoms: C18_7  and  O3_38
REMARK    4  A    between atoms: C23_10  and  O4_40
REMARK    5  A    between atoms: O2_11  and  C24_12
REMARK    6  A    between atoms: C24_12  and  C28_14
REMARK    7  A    between atoms: C32_16  and  O10_20
REMARK    8  A    between atoms: C33_17  and  O11_22
REMARK    9  A    between atoms: C31_18  and  O9_24
REMARK   10  A    between atoms: C26_28  and  O6_32
REMARK   11  A    between atoms: C27_29  and  O8_34
REMARK   12  A    between atoms: C25_30  and  O5_36
REMARK                            x       y       z     vdW  Elec       q    Type
REMARK                         _______ _______ _______ _____ _____    ______ ____
ROOT
ATOM      1  O1  UNK     0      -2.413   1.599   0.357  0.00  0.00    +0.000 OA
ATOM      2  C12 UNK     0      -0.236   1.281  -0.674  0.00  0.00    +0.000 C 
ATOM      3  C13 UNK     0      -1.204   0.845   0.444  0.00  0.00    +0.000 C 
ATOM      4  C14 UNK     0       0.027   2.792  -0.566  0.00  0.00    +0.000 C 
ATOM      5  C15 UNK     0      -1.249   3.596  -0.429  0.00  0.00    +0.000 A 
ATOM      6  C17 UNK     0      -2.423   2.959   0.028  0.00  0.00    +0.000 A 
ATOM      7  C18 UNK     0      -1.279   4.986  -0.696  0.00  0.00    +0.000 A 
ATOM      8  C19 UNK     0      -3.616   3.676   0.141  0.00  0.00    +0.000 A 
ATOM      9  C22 UNK     0      -2.484   5.689  -0.578  0.00  0.00    +0.000 A 
ATOM     10  C23 UNK     0      -3.652   5.037  -0.166  0.00  0.00    +0.000 A 
ENDROOT
BRANCH   3  11
ATOM     11  C16 UNK     0      -1.519  -0.630   0.364  0.00  0.00    +0.000 A 
ATOM     12  C20 UNK     0      -2.412  -1.118  -0.602  0.00  0.00    +0.000 A 
ATOM     13  C26 UNK     0      -2.660  -2.489  -0.725  0.00  0.00    +0.000 A 
ATOM     14  C27 UNK     0      -1.996  -3.400   0.132  0.00  0.00    +0.000 A 
ATOM     15  C25 UNK     0      -1.093  -2.910   1.094  0.00  0.00    +0.000 A 
ATOM     16  C21 UNK     0      -0.861  -1.537   1.206  0.00  0.00    +0.000 A 
BRANCH  13  17
ATOM     17  O6  UNK     0      -3.563  -2.899  -1.709  0.00  0.00    +0.000 OA
ATOM     18  H47 UNK     0      -3.810  -3.862  -1.886  0.00  0.00    +0.000 HD
ENDBRANCH  13  17
BRANCH  14  19
ATOM     19  O8  UNK     0      -2.202  -4.780   0.056  0.00  0.00    +0.000 OA
ATOM     20  H48 UNK     0      -2.829  -5.225  -0.597  0.00  0.00    +0.000 HD
ENDBRANCH  14  19
BRANCH  15  21
ATOM     21  O5  UNK     0      -0.410  -3.776   1.948  0.00  0.00    +0.000 OA
ATOM     22  H46 UNK     0      -0.533  -4.781   1.912  0.00  0.00    +0.000 HD
ENDBRANCH  15  21
ENDBRANCH   3  11
BRANCH   7  23
ATOM     23  O3  UNK     0      -0.137   5.699  -1.067  0.00  0.00    +0.000 OA
ATOM     24  H42 UNK     0       0.787   5.289  -1.102  0.00  0.00    +0.000 HD
ENDBRANCH   7  23
BRANCH  10  25
ATOM     25  O4  UNK     0      -4.852   5.736  -0.049  0.00  0.00    +0.000 OA
ATOM     26  H43 UNK     0      -4.912   6.725  -0.262  0.00  0.00    +0.000 HD
ENDBRANCH  10  25
BRANCH   2  27
ATOM     27  O2  UNK     0       1.009   0.589  -0.555  0.00  0.00    +0.000 OA
BRANCH  27  28
ATOM     28  C24 UNK     0       1.283  -0.640  -1.172  0.00  0.00    +0.000 C 
ATOM     29  O7  UNK     0       0.502  -1.096  -2.052  0.00  0.00    +0.000 OA
BRANCH  28  30
ATOM     30  C28 UNK     0       2.485  -1.406  -0.779  0.00  0.00    +0.000 A 
ATOM     31  C29 UNK     0       3.355  -0.904   0.202  0.00  0.00    +0.000 A 
ATOM     32  C32 UNK     0       4.488  -1.632   0.592  0.00  0.00    +0.000 A 
ATOM     33  C33 UNK     0       4.760  -2.876  -0.001  0.00  0.00    +0.000 A 
ATOM     34  C31 UNK     0       3.891  -3.385  -0.982  0.00  0.00    +0.000 A 
ATOM     35  C30 UNK     0       2.763  -2.653  -1.365  0.00  0.00    +0.000 A 
BRANCH  32  36
ATOM     36  O10 UNK     0       5.344  -1.122   1.567  0.00  0.00    +0.000 OA
ATOM     37  H50 UNK     0       5.172  -0.227   2.010  0.00  0.00    +0.000 HD
ENDBRANCH  32  36
BRANCH  33  38
ATOM     38  O11 UNK     0       5.883  -3.614   0.375  0.00  0.00    +0.000 OA
ATOM     39  H51 UNK     0       6.535  -3.285   1.077  0.00  0.00    +0.000 HD
ENDBRANCH  33  38
BRANCH  34  40
ATOM     40  O9  UNK     0       4.133  -4.618  -1.587  0.00  0.00    +0.000 OA
ATOM     41  H49 UNK     0       4.934  -5.189  -1.347  0.00  0.00    +0.000 HD
ENDBRANCH  34  40
ENDBRANCH  28  30
ENDBRANCH  27  28
ENDBRANCH   2  27
TORSDOF 12
