REMARK  32 active torsions:
REMARK  status: ('A' for Active; 'I' for Inactive)
REMARK       I    between atoms: P_1  and  O_7 
REMARK       I    between atoms: P_1  and  O_14 
REMARK       I    between atoms: P_1  and  O_15 
REMARK       I    between atoms: P_2  and  O_10 
REMARK       I    between atoms: P_2  and  O_18 
REMARK       I    between atoms: P_2  and  O_19 
REMARK    1  A    between atoms: O_4  and  C_27 
REMARK    2  A    between atoms: O_4  and  C_33 
REMARK    3  A    between atoms: O_6  and  C_25 
REMARK    4  A    between atoms: O_6  and  C_36 
REMARK    5  A    between atoms: O_7  and  C_26 
REMARK    6  A    between atoms: O_8  and  C_30 
REMARK    7  A    between atoms: O_8  and  C_39 
REMARK       I    between atoms: O_9  and  C_31 
REMARK       I    between atoms: O_10  and  C_34 
REMARK       I    between atoms: O_11  and  C_35 
REMARK       I    between atoms: O_13  and  C_40 
REMARK    8  A    between atoms: N_22  and  C_24 
REMARK       I    between atoms: N_22  and  C_37 
REMARK    9  A    between atoms: N_23  and  C_32 
REMARK       I    between atoms: N_23  and  C_42 
REMARK       I    between atoms: C_28  and  C_35 
REMARK   10  A    between atoms: C_29  and  C_33 
REMARK   11  A    between atoms: C_36  and  C_38 
REMARK   12  A    between atoms: C_37  and  C_41 
REMARK   13  A    between atoms: C_38  and  C_40 
REMARK   14  A    between atoms: C_39  and  C_43 
REMARK   15  A    between atoms: C_40  and  C_45 
REMARK   16  A    between atoms: C_41  and  C_44 
REMARK   17  A    between atoms: C_42  and  C_47 
REMARK   18  A    between atoms: C_43  and  C_46 
REMARK   19  A    between atoms: C_44  and  C_49 
REMARK       I    between atoms: C_45  and  C_50 
REMARK       I    between atoms: C_46  and  C_51 
REMARK   20  A    between atoms: C_47  and  C_55 
REMARK   21  A    between atoms: C_49  and  C_52 
REMARK       I    between atoms: C_50  and  C_53 
REMARK       I    between atoms: C_51  and  C_54 
REMARK   22  A    between atoms: C_52  and  C_56 
REMARK       I    between atoms: C_53  and  C_57 
REMARK       I    between atoms: C_54  and  C_59 
REMARK   23  A    between atoms: C_55  and  C_58 
REMARK   24  A    between atoms: C_56  and  C_61 
REMARK       I    between atoms: C_57  and  C_63 
REMARK   25  A    between atoms: C_58  and  C_62 
REMARK       I    between atoms: C_59  and  C_64 
REMARK   26  A    between atoms: C_61  and  C_65 
REMARK   27  A    between atoms: C_62  and  C_66 
REMARK       I    between atoms: C_63  and  C_68 
REMARK       I    between atoms: C_64  and  C_67 
REMARK   28  A    between atoms: C_65  and  C_70 
REMARK   29  A    between atoms: C_66  and  C_69 
REMARK       I    between atoms: C_67  and  C_71 
REMARK   30  A    between atoms: C_69  and  C_72 
REMARK   31  A    between atoms: C_70  and  C_74 
REMARK       I    between atoms: C_72  and  C_75 
REMARK   32  A    between atoms: C_74  and  C_79 
REMARK       I    between atoms: C_75  and  C_77 
REMARK       I    between atoms: C_77  and  C_78 
REMARK       I    between atoms: C_78  and  C_80 
REMARK       I    between atoms: C_80  and  C_82 
REMARK       I    between atoms: C_81  and  C_83 
REMARK       I    between atoms: C_83  and  C_84 
REMARK       I    between atoms: C_84  and  C_86 
REMARK       I    between atoms: C_86  and  C_87 
REMARK       I    between atoms: C_87  and  C_88 
ROOT
ATOM      1  O           0       3.870   3.903   0.262  0.00  0.00    -0.349 OA
ATOM      2  O           0       4.682   6.563   0.977  0.00  0.00    -0.393 OA
ATOM      3  C           0       4.215   1.517   0.470  0.00  0.00     0.171 C 
ATOM      4  C           0       5.589   1.741   1.110  0.00  0.00     0.181 C 
ATOM      5  C           0       6.120   3.109   0.665  0.00  0.00     0.196 C 
ATOM      6  C           0       3.310   2.706   0.800  0.00  0.00     0.285 C 
ATOM      7  C           0       5.071   4.178   0.981  0.00  0.00     0.180 C 
ATOM      8  C           0       5.606   5.551   0.571  0.00  0.00     0.201 C 
ATOM      9  C           0       5.235   7.816   0.568  0.00  0.00     0.201 C 
ENDROOT
BRANCH   6  10
ATOM     10  O           0       2.016   2.491   0.232  0.00  0.00    -0.356 OA
BRANCH  10  11
ATOM     11  C           0       1.161   3.509   0.756  0.00  0.00     0.205 C 
BRANCH  11  12
ATOM     12  C           0      -0.245   3.341   0.177  0.00  0.00     0.180 C 
ATOM     13  O           0      -0.804   2.112   0.639  0.00  0.00    -0.348 OA
ATOM     14  C           0      -2.031   1.907  -0.060  0.00  0.00     0.297 C 
ATOM     15  O           0      -1.800   2.015  -1.466  0.00  0.00    -0.264 OA
ATOM     16  C           0      -3.055   2.960   0.370  0.00  0.00     0.171 C 
ATOM     17  P           0      -1.354   0.555  -1.978  0.00  0.00     0.393 P 
ATOM     18  O           0      -1.198   0.573  -3.580  0.00  0.00    -0.307 OA
ATOM     19  O           0       0.053   0.157  -1.306  0.00  0.00    -0.307 OA
ATOM     20  O           0      -2.383  -0.438  -1.594  0.00  0.00    -0.631 OA
ATOM     21  H           0      -0.931  -0.318  -3.845  0.00  0.00     0.222 HD
ATOM     22  H           0       0.694   0.828  -1.581  0.00  0.00     0.222 HD
ATOM     23  C           0      -2.519   4.352   0.014  0.00  0.00     0.180 C 
ATOM     24  C           0      -1.123   4.511   0.627  0.00  0.00     0.180 C 
ATOM     25  O           0      -0.545   5.741   0.184  0.00  0.00    -0.390 OA
ATOM     26  H           0       0.333   5.797   0.586  0.00  0.00     0.210 HD
BRANCH  16  27
ATOM     27  N           0      -4.320   2.728  -0.331  0.00  0.00    -0.349 N 
ATOM     28  C           0      -5.216   1.853   0.168  0.00  0.00     0.225 C 
ATOM     29  O           0      -4.975   1.259   1.197  0.00  0.00    -0.273 OA
ATOM     30  H           0      -4.513   3.203  -1.154  0.00  0.00     0.163 HD
BRANCH  28  31
ATOM     31  C           0      -6.518   1.615  -0.553  0.00  0.00     0.181 C 
BRANCH  31  32
ATOM     32  C           0      -7.334   0.601   0.206  0.00  0.00     0.135 C 
ATOM     33  O           0      -6.904   0.122   1.228  0.00  0.00    -0.298 OA
BRANCH  32  34
ATOM     34  C           0      -8.688   0.185  -0.309  0.00  0.00     0.079 C 
BRANCH  34  35
ATOM     35  C           0      -9.300  -0.846   0.641  0.00  0.00     0.007 C 
BRANCH  35  36
ATOM     36  C           0     -10.675  -1.269   0.118  0.00  0.00     0.000 C 
BRANCH  36  37
ATOM     37  C           0     -11.287  -2.300   1.068  0.00  0.00     0.000 C 
BRANCH  37  38
ATOM     38  C           0     -12.661  -2.722   0.545  0.00  0.00     0.000 C 
ATOM     39  C           0     -13.274  -3.754   1.494  0.00  0.00     0.000 C 
ATOM     40  C           0     -14.648  -4.176   0.971  0.00  0.00     0.000 C 
ATOM     41  C           0     -15.260  -5.207   1.921  0.00  0.00     0.000 C 
ATOM     42  C           0     -16.635  -5.630   1.398  0.00  0.00    -0.000 C 
ATOM     43  C           0     -17.247  -6.661   2.348  0.00  0.00    -0.005 C 
ATOM     44  C           0     -18.622  -7.083   1.825  0.00  0.00     0.005 C 
ENDBRANCH  37  38
ENDBRANCH  36  37
ENDBRANCH  35  36
ENDBRANCH  34  35
ENDBRANCH  32  34
ENDBRANCH  31  32
ENDBRANCH  28  31
ENDBRANCH  16  27
BRANCH  23  45
ATOM     45  O           0      -3.393   5.351   0.545  0.00  0.00    -0.381 OA
BRANCH  45  46
ATOM     46  C           0      -3.295   6.485  -0.319  0.00  0.00     0.168 C 
BRANCH  46  47
ATOM     47  C           0      -4.211   7.598   0.195  0.00  0.00     0.026 C 
BRANCH  47  48
ATOM     48  C           0      -4.107   8.812  -0.730  0.00  0.00     0.002 C 
ATOM     49  C           0      -5.022   9.925  -0.216  0.00  0.00     0.000 C 
ATOM     50  C           0      -4.918  11.139  -1.141  0.00  0.00     0.000 C 
ATOM     51  C           0      -5.834  12.252  -0.627  0.00  0.00     0.000 C 
ATOM     52  C           0      -5.730  13.466  -1.552  0.00  0.00     0.000 C 
ATOM     53  C           0      -6.645  14.579  -1.038  0.00  0.00    -0.000 C 
ATOM     54  C           0      -6.541  15.793  -1.963  0.00  0.00    -0.005 C 
ATOM     55  C           0      -7.457  16.906  -1.449  0.00  0.00     0.005 C 
ENDBRANCH  47  48
ENDBRANCH  46  47
ENDBRANCH  45  46
ENDBRANCH  23  45
ENDBRANCH  11  12
ENDBRANCH  10  11
ENDBRANCH   6  10
BRANCH   3  56
ATOM     56  N           0       3.621   0.287   1.001  0.00  0.00    -0.349 N 
ATOM     57  C           0       3.029  -0.590   0.167  0.00  0.00     0.218 C 
ATOM     58  O           0       3.040  -0.392  -1.030  0.00  0.00    -0.274 OA
ATOM     59  H           0       3.655   0.105   1.953  0.00  0.00     0.163 HD
BRANCH  57  60
ATOM     60  C           0       2.353  -1.818   0.721  0.00  0.00     0.103 C 
BRANCH  60  61
ATOM     61  C           0       1.897  -2.713  -0.433  0.00  0.00     0.009 C 
BRANCH  61  62
ATOM     62  C           0       1.311  -4.010   0.129  0.00  0.00     0.000 C 
BRANCH  62  63
ATOM     63  C           0       0.855  -4.906  -1.025  0.00  0.00     0.000 C 
BRANCH  63  64
ATOM     64  C           0       0.269  -6.203  -0.463  0.00  0.00     0.000 C 
BRANCH  64  65
ATOM     65  C           0      -0.187  -7.098  -1.616  0.00  0.00     0.000 C 
BRANCH  65  66
ATOM     66  C           0      -0.773  -8.395  -1.054  0.00  0.00     0.000 C 
BRANCH  66  67
ATOM     67  C           0      -1.229  -9.291  -2.208  0.00  0.00     0.004 C 
BRANCH  67  68
ATOM     68  C           0      -1.815 -10.588  -1.646  0.00  0.00     0.027 C 
BRANCH  68  69
ATOM     69  C           0      -2.264 -11.470  -2.782  0.00  0.00    -0.031 C 
ATOM     70  C           0      -1.689 -12.631  -2.976  0.00  0.00    -0.031 C 
ATOM     71  C           0      -0.468 -13.011  -2.178  0.00  0.00     0.027 C 
ATOM     72  C           0      -0.787 -14.227  -1.306  0.00  0.00     0.004 C 
ATOM     73  C           0       0.453 -14.612  -0.496  0.00  0.00     0.000 C 
ATOM     74  C           0       0.134 -15.828   0.376  0.00  0.00    -0.000 C 
ATOM     75  C           0       1.374 -16.213   1.186  0.00  0.00    -0.005 C 
ATOM     76  C           0       1.056 -17.430   2.058  0.00  0.00     0.005 C 
ENDBRANCH  68  69
ENDBRANCH  67  68
ENDBRANCH  66  67
ENDBRANCH  65  66
ENDBRANCH  64  65
ENDBRANCH  63  64
ENDBRANCH  62  63
ENDBRANCH  61  62
ENDBRANCH  60  61
ENDBRANCH  57  60
ENDBRANCH   3  56
BRANCH   4  77
ATOM     77  O           0       6.489   0.716   0.686  0.00  0.00    -0.381 OA
BRANCH  77  78
ATOM     78  C           0       7.425   0.522   1.749  0.00  0.00     0.171 C 
BRANCH  78  79
ATOM     79  C           0       8.423  -0.569   1.357  0.00  0.00     0.058 C 
BRANCH  79  80
ATOM     80  C           0       9.425  -0.776   2.495  0.00  0.00     0.122 C 
ATOM     81  O           0      10.206   0.408   2.663  0.00  0.00    -0.391 OA
ATOM     82  C           0      10.635   0.430   4.026  0.00  0.00     0.202 C 
BRANCH  80  83
ATOM     83  C           0      10.345  -1.951   2.156  0.00  0.00     0.032 C 
ATOM     84  C           0      11.124  -1.637   0.877  0.00  0.00     0.002 C 
ATOM     85  C           0      11.973  -2.848   0.487  0.00  0.00     0.000 C 
ATOM     86  C           0      12.752  -2.533  -0.792  0.00  0.00     0.000 C 
ATOM     87  C           0      13.602  -3.744  -1.182  0.00  0.00    -0.000 C 
ATOM     88  C           0      14.380  -3.430  -2.461  0.00  0.00    -0.005 C 
ATOM     89  C           0      15.230  -4.641  -2.852  0.00  0.00     0.005 C 
ENDBRANCH  80  83
ENDBRANCH  79  80
ENDBRANCH  78  79
ENDBRANCH  77  78
ENDBRANCH   4  77
BRANCH   5  90
ATOM     90  O           0       7.329   3.404   1.367  0.00  0.00    -0.286 OA
ATOM     91  P           0       8.480   3.583   0.256  0.00  0.00     0.391 P 
ATOM     92  O           0       9.847   4.048   0.970  0.00  0.00    -0.307 OA
ATOM     93  O           0       8.719   2.183  -0.501  0.00  0.00    -0.307 OA
ATOM     94  O           0       8.063   4.610  -0.725  0.00  0.00    -0.632 OA
ATOM     95  H           0      10.509   4.143   0.271  0.00  0.00     0.222 HD
ATOM     96  H           0       8.989   1.543   0.173  0.00  0.00     0.222 HD
ENDBRANCH   5  90
TORSDOF 64
