REMARK  Name = C:\Users\Maximilian\Desktop\Conformers\converted_pdb\conformers_pdb\Ferulic Acid_conf_4.pdb
REMARK  6 active torsions:
REMARK  status: ('A' for Active; 'I' for Inactive)
REMARK    1  A    between atoms: C5_1  and  C11_7
REMARK    2  A    between atoms: C6_2  and  O1_13
REMARK    3  A    between atoms: C9_5  and  O2_15
REMARK    4  A    between atoms: C12_8  and  C14_9
REMARK    5  A    between atoms: C14_9  and  O3_11
REMARK    6  A    between atoms: O1_13  and  C13_14
REMARK                            x       y       z     vdW  Elec       q    Type
REMARK                         _______ _______ _______ _____ _____    ______ ____
ROOT
ATOM      1  C5  UNK     0       0.552   0.545   0.391  0.00  0.00    +0.000 A 
ATOM      2  C6  UNK     0      -1.754  -0.260   0.382  0.00  0.00    +0.000 A 
ATOM      3  C7  UNK     0      -0.749   0.584  -0.131  0.00  0.00    +0.000 A 
ATOM      4  C8  UNK     0       0.836  -0.306   1.471  0.00  0.00    +0.000 A 
ATOM      5  C9  UNK     0      -1.445  -1.130   1.444  0.00  0.00    +0.000 A 
ATOM      6  C10 UNK     0      -0.155  -1.145   1.984  0.00  0.00    +0.000 A 
ENDROOT
BRANCH   1   7
ATOM      7  C11 UNK     0       1.571   1.478  -0.133  0.00  0.00    +0.000 C 
ATOM      8  C12 UNK     0       2.826   1.148  -0.474  0.00  0.00    +0.000 C 
BRANCH   8   9
ATOM      9  C14 UNK     0       3.364  -0.224  -0.560  0.00  0.00    +0.000 C 
ATOM     10  O4  UNK     0       2.601  -1.225  -0.634  0.00  0.00    +0.000 OA
BRANCH   9  11
ATOM     11  O3  UNK     0       4.741  -0.406  -0.623  0.00  0.00    +0.000 OA
ATOM     12  H24 UNK     0       5.140  -1.334  -0.703  0.00  0.00    +0.000 HD
ENDBRANCH   9  11
ENDBRANCH   8   9
ENDBRANCH   1   7
BRANCH   2  13
ATOM     13  O1  UNK     0      -3.061  -0.258  -0.133  0.00  0.00    +0.000 OA
ATOM     14  C13 UNK     0      -3.506   0.569  -1.203  0.00  0.00    +0.000 C 
ENDBRANCH   2  13
BRANCH   5  15
ATOM     15  O2  UNK     0      -2.409  -1.984   1.980  0.00  0.00    +0.000 OA
ATOM     16  H23 UNK     0      -3.358  -2.014   1.630  0.00  0.00    +0.000 HD
ENDBRANCH   5  15
TORSDOF 5
