REMARK  Name = C:\Users\Maximilian\Desktop\Conformers\converted_pdb\conformers_pdb\Ferulic Acid_conf_3.pdb
REMARK  6 active torsions:
REMARK  status: ('A' for Active; 'I' for Inactive)
REMARK    1  A    between atoms: C5_1  and  C11_7
REMARK    2  A    between atoms: C6_2  and  O1_13
REMARK    3  A    between atoms: C9_5  and  O2_15
REMARK    4  A    between atoms: C12_8  and  C14_9
REMARK    5  A    between atoms: C14_9  and  O3_11
REMARK    6  A    between atoms: O1_13  and  C13_14
REMARK                            x       y       z     vdW  Elec       q    Type
REMARK                         _______ _______ _______ _____ _____    ______ ____
ROOT
ATOM      1  C5  UNK     0       0.582  -1.163   0.408  0.00  0.00    +0.000 A 
ATOM      2  C6  UNK     0      -1.462  -0.043  -0.330  0.00  0.00    +0.000 A 
ATOM      3  C7  UNK     0      -0.057  -0.087  -0.231  0.00  0.00    +0.000 A 
ATOM      4  C8  UNK     0      -0.187  -2.226   0.898  0.00  0.00    +0.000 A 
ATOM      5  C9  UNK     0      -2.221  -1.105   0.197  0.00  0.00    +0.000 A 
ATOM      6  C10 UNK     0      -1.579  -2.190   0.802  0.00  0.00    +0.000 A 
ENDROOT
BRANCH   1   7
ATOM      7  C11 UNK     0       2.056  -1.246   0.478  0.00  0.00    +0.000 C 
ATOM      8  C12 UNK     0       2.872  -0.262   0.886  0.00  0.00    +0.000 C 
BRANCH   8   9
ATOM      9  C14 UNK     0       2.448   1.009   1.506  0.00  0.00    +0.000 C 
ATOM     10  O4  UNK     0       1.300   1.145   2.007  0.00  0.00    +0.000 OA
BRANCH   9  11
ATOM     11  O3  UNK     0       3.361   2.055   1.589  0.00  0.00    +0.000 OA
ATOM     12  H24 UNK     0       3.107   2.933   2.026  0.00  0.00    +0.000 HD
ENDBRANCH   9  11
ENDBRANCH   8   9
ENDBRANCH   1   7
BRANCH   2  13
ATOM     13  O1  UNK     0      -2.131   1.029  -0.942  0.00  0.00    +0.000 OA
ATOM     14  C13 UNK     0      -1.487   2.169  -1.502  0.00  0.00    +0.000 C 
ENDBRANCH   2  13
BRANCH   5  15
ATOM     15  O2  UNK     0      -3.613  -1.102   0.123  0.00  0.00    +0.000 OA
ATOM     16  H23 UNK     0      -4.130  -0.343  -0.305  0.00  0.00    +0.000 HD
ENDBRANCH   5  15
TORSDOF 5
