REMARK  Name = C:\Users\Maximilian\Desktop\Conformers\converted_pdb\conformers_pdb\Ferulic Acid_conf_2.pdb
REMARK  6 active torsions:
REMARK  status: ('A' for Active; 'I' for Inactive)
REMARK    1  A    between atoms: C5_1  and  C11_7
REMARK    2  A    between atoms: C6_2  and  O1_13
REMARK    3  A    between atoms: C9_5  and  O2_15
REMARK    4  A    between atoms: C12_8  and  C14_9
REMARK    5  A    between atoms: C14_9  and  O3_11
REMARK    6  A    between atoms: O1_13  and  C13_14
REMARK                            x       y       z     vdW  Elec       q    Type
REMARK                         _______ _______ _______ _____ _____    ______ ____
ROOT
ATOM      1  C5  UNK     0       0.555  -0.098  -0.845  0.00  0.00    +0.000 A 
ATOM      2  C6  UNK     0      -1.854   0.097  -0.444  0.00  0.00    +0.000 A 
ATOM      3  C7  UNK     0      -0.526   0.140   0.028  0.00  0.00    +0.000 A 
ATOM      4  C8  UNK     0       0.292  -0.351  -2.199  0.00  0.00    +0.000 A 
ATOM      5  C9  UNK     0      -2.093  -0.177  -1.803  0.00  0.00    +0.000 A 
ATOM      6  C10 UNK     0      -1.020  -0.395  -2.671  0.00  0.00    +0.000 A 
ENDROOT
BRANCH   1   7
ATOM      7  C11 UNK     0       1.968  -0.053  -0.394  0.00  0.00    +0.000 C 
ATOM      8  C12 UNK     0       2.350  -0.250   0.876  0.00  0.00    +0.000 C 
BRANCH   8   9
ATOM      9  C14 UNK     0       3.765  -0.209   1.278  0.00  0.00    +0.000 C 
ATOM     10  O4  UNK     0       4.073  -0.425   2.480  0.00  0.00    +0.000 OA
BRANCH   9  11
ATOM     11  O3  UNK     0       4.765   0.066   0.348  0.00  0.00    +0.000 OA
ATOM     12  H24 UNK     0       5.739   0.094   0.625  0.00  0.00    +0.000 HD
ENDBRANCH   9  11
ENDBRANCH   8   9
ENDBRANCH   1   7
BRANCH   2  13
ATOM     13  O1  UNK     0      -2.952   0.324   0.402  0.00  0.00    +0.000 OA
ATOM     14  C13 UNK     0      -2.856   0.608   1.794  0.00  0.00    +0.000 C 
ENDBRANCH   2  13
BRANCH   5  15
ATOM     15  O2  UNK     0      -3.391  -0.232  -2.310  0.00  0.00    +0.000 OA
ATOM     16  H23 UNK     0      -4.205  -0.081  -1.727  0.00  0.00    +0.000 HD
ENDBRANCH   5  15
TORSDOF 5
