REMARK  5 active torsions:
REMARK  status: ('A' for Active; 'I' for Inactive)
REMARK    1  A    between atoms: O1_1  and  C6_6 
REMARK    2  A    between atoms: O2_2  and  C9_9 
REMARK    3  A    between atoms: O3_3  and  C14_14 
REMARK    4  A    between atoms: C5_5  and  C11_11 
REMARK    5  A    between atoms: C12_12  and  C14_14 
ROOT
HETATM    1  C5          0       4.813  -0.044   0.000  1.00  0.00    -0.033 A 
HETATM    2  C6          0       3.603  -2.150  -0.000  1.00  0.00     0.102 A 
HETATM    3  C7          0       3.643  -0.680   0.000  1.00  0.00     0.051 A 
HETATM    4  C8          0       6.063  -0.809   0.000  1.00  0.00     0.014 A 
HETATM    5  C9          0       4.741  -2.841  -0.000  1.00  0.00     0.099 A 
HETATM    6  C10         0       6.028  -2.140  -0.000  1.00  0.00     0.040 A 
ENDROOT
BRANCH   1   7
HETATM    7  C11         0       4.845   1.417   0.000  1.00  0.00     0.018 C 
HETATM    8  C12         0       6.009   2.062   0.000  1.00  0.00     0.082 C 
BRANCH   8   9
HETATM    9  C14         0       6.027   3.523   0.000  1.00  0.00     0.165 C 
HETATM   10  O4          0       4.964   4.153   0.000  1.00  0.00    -0.647 OA
BRANCH   9  11
HETATM   11  O3          0       7.239   4.205   0.000  1.00  0.00    -0.773 OA
HETATM   12  H24         0       7.067   5.180   0.000  1.00  0.00     0.167 HD
ENDBRANCH   9  11
ENDBRANCH   8   9
ENDBRANCH   1   7
BRANCH   2  13
HETATM   13  O1          0       2.380  -2.836  -0.000  1.00  0.00    -0.353 OA
HETATM   14  C13         0       1.275  -1.922  -0.000  1.00  0.00     0.210 C 
ENDBRANCH   2  13
BRANCH   5  15
HETATM   15  O2          0       4.707  -4.230  -0.000  1.00  0.00    -0.358 OA
HETATM   16  H23         0       5.632  -4.581  -0.000  1.00  0.00     0.217 HD
ENDBRANCH   5  15
TORSDOF 5
