REMARK  Name = C:\Users\Maximilian\Desktop\Conformers\converted_pdb\conformers_pdb\Ferulic Acid_conf_1.pdb
REMARK  6 active torsions:
REMARK  status: ('A' for Active; 'I' for Inactive)
REMARK    1  A    between atoms: C5_1  and  C11_7
REMARK    2  A    between atoms: C6_2  and  O1_13
REMARK    3  A    between atoms: C9_5  and  O2_15
REMARK    4  A    between atoms: C12_8  and  C14_9
REMARK    5  A    between atoms: C14_9  and  O3_11
REMARK    6  A    between atoms: O1_13  and  C13_14
REMARK                            x       y       z     vdW  Elec       q    Type
REMARK                         _______ _______ _______ _____ _____    ______ ____
ROOT
ATOM      1  C5  UNK     0       0.260  -0.002   0.180  0.00  0.00    +0.000 A 
ATOM      2  C6  UNK     0      -1.875   0.048  -1.015  0.00  0.00    +0.000 A 
ATOM      3  C7  UNK     0      -0.527  -0.354  -0.930  0.00  0.00    +0.000 A 
ATOM      4  C8  UNK     0      -0.326   0.739   1.223  0.00  0.00    +0.000 A 
ATOM      5  C9  UNK     0      -2.436   0.798   0.027  0.00  0.00    +0.000 A 
ATOM      6  C10 UNK     0      -1.661   1.138   1.142  0.00  0.00    +0.000 A 
ENDROOT
BRANCH   1   7
ATOM      7  C11 UNK     0       1.671  -0.460   0.224  0.00  0.00    +0.000 C 
ATOM      8  C12 UNK     0       2.618   0.115   0.980  0.00  0.00    +0.000 C 
BRANCH   8   9
ATOM      9  C14 UNK     0       4.012  -0.359   0.989  0.00  0.00    +0.000 C 
ATOM     10  O4  UNK     0       4.366  -1.351   0.296  0.00  0.00    +0.000 OA
BRANCH   9  11
ATOM     11  O3  UNK     0       4.948   0.300   1.779  0.00  0.00    +0.000 OA
ATOM     12  H24 UNK     0       5.914  -0.005   1.804  0.00  0.00    +0.000 HD
ENDBRANCH   9  11
ENDBRANCH   8   9
ENDBRANCH   1   7
BRANCH   2  13
ATOM     13  O1  UNK     0      -2.686  -0.279  -2.114  0.00  0.00    +0.000 OA
ATOM     14  C13 UNK     0      -2.251  -1.034  -3.241  0.00  0.00    +0.000 C 
ENDBRANCH   2  13
BRANCH   5  15
ATOM     15  O2  UNK     0      -3.768   1.199  -0.052  0.00  0.00    +0.000 OA
ATOM     16  H23 UNK     0      -4.204   1.742   0.685  0.00  0.00    +0.000 HD
ENDBRANCH   5  15
TORSDOF 5
