REMARK  Name = C:\Users\Maximilian\Desktop\Conformers\converted_pdb\conformers_pdb\Fisetin_conf_2.pdb
REMARK  5 active torsions:
REMARK  status: ('A' for Active; 'I' for Inactive)
REMARK    1  A    between atoms: C7_3  and  C10_12
REMARK    2  A    between atoms: C11_6  and  O2_22
REMARK    3  A    between atoms: C17_10  and  O4_24
REMARK    4  A    between atoms: C19_14  and  O5_18
REMARK    5  A    between atoms: C21_15  and  O6_20
REMARK                            x       y       z     vdW  Elec       q    Type
REMARK                         _______ _______ _______ _____ _____    ______ ____
ROOT
ATOM      1  O1  UNK     0      -0.692   0.536  -0.124  0.00  0.00    +0.000 OA
ATOM      2  O3  UNK     0      -2.184  -3.041   0.914  0.00  0.00    +0.000 OA
ATOM      3  C7  UNK     0       0.159  -0.457   0.126  0.00  0.00    +0.000 A 
ATOM      4  C8  UNK     0      -2.582  -0.845   0.297  0.00  0.00    +0.000 A 
ATOM      5  C9  UNK     0      -2.011   0.397  -0.056  0.00  0.00    +0.000 A 
ATOM      6  C11 UNK     0      -0.332  -1.722   0.509  0.00  0.00    +0.000 A 
ATOM      7  C12 UNK     0      -1.720  -1.915   0.584  0.00  0.00    +0.000 A 
ATOM      8  C13 UNK     0      -3.982  -0.970   0.358  0.00  0.00    +0.000 A 
ATOM      9  C14 UNK     0      -2.837   1.491  -0.340  0.00  0.00    +0.000 A 
ATOM     10  C17 UNK     0      -4.231   1.358  -0.277  0.00  0.00    +0.000 A 
ATOM     11  C18 UNK     0      -4.798   0.128   0.071  0.00  0.00    +0.000 A 
ENDROOT
BRANCH   3  12
ATOM     12  C10 UNK     0       1.609  -0.179   0.006  0.00  0.00    +0.000 A 
ATOM     13  C15 UNK     0       2.119   1.045   0.468  0.00  0.00    +0.000 A 
ATOM     14  C19 UNK     0       3.481   1.343   0.347  0.00  0.00    +0.000 A 
ATOM     15  C21 UNK     0       4.348   0.417  -0.256  0.00  0.00    +0.000 A 
ATOM     16  C20 UNK     0       3.840  -0.797  -0.738  0.00  0.00    +0.000 A 
ATOM     17  C16 UNK     0       2.480  -1.091  -0.615  0.00  0.00    +0.000 A 
BRANCH  14  18
ATOM     18  O5  UNK     0       3.953   2.563   0.831  0.00  0.00    +0.000 OA
ATOM     19  H30 UNK     0       4.929   2.825   0.767  0.00  0.00    +0.000 HD
ENDBRANCH  14  18
BRANCH  15  20
ATOM     20  O6  UNK     0       5.706   0.706  -0.378  0.00  0.00    +0.000 OA
ATOM     21  H31 UNK     0       6.351   0.055  -0.811  0.00  0.00    +0.000 HD
ENDBRANCH  15  20
ENDBRANCH   3  12
BRANCH   6  22
ATOM     22  O2  UNK     0       0.551  -2.754   0.836  0.00  0.00    +0.000 OA
ATOM     23  H28 UNK     0       0.230  -3.671   1.124  0.00  0.00    +0.000 HD
ENDBRANCH   6  22
BRANCH  10  24
ATOM     24  O4  UNK     0      -5.060   2.442  -0.558  0.00  0.00    +0.000 OA
ATOM     25  H29 UNK     0      -4.681   3.346  -0.814  0.00  0.00    +0.000 HD
ENDBRANCH  10  24
TORSDOF 5
