REMARK  5 active torsions:
REMARK  status: ('A' for Active; 'I' for Inactive)
REMARK    1  A    between atoms: O2_2  and  C11_11 
REMARK    2  A    between atoms: O4_4  and  C17_17 
REMARK    3  A    between atoms: O5_5  and  C19_19 
REMARK    4  A    between atoms: O6_6  and  C21_21 
REMARK    5  A    between atoms: C7_7  and  C10_10 
ROOT
HETATM    1  O1          0       5.849  -0.173   0.000  1.00  0.00    -0.306 OA
HETATM    2  O3          0       5.777   3.798  -0.000  1.00  0.00    -0.284 OA
HETATM    3  C7          0       7.067   0.509  -0.000  1.00  0.00     0.123 A 
HETATM    4  C8          0       4.585   1.821   0.000  1.00  0.00     0.051 A 
HETATM    5  C9          0       4.626   0.493   0.000  1.00  0.00     0.093 A 
HETATM    6  C11         0       7.064   1.856  -0.000  1.00  0.00     0.152 A 
HETATM    7  C12         0       5.804   2.563  -0.000  1.00  0.00     0.220 A 
HETATM    8  C13         0       3.310   2.532  -0.000  1.00  0.00     0.021 A 
HETATM    9  C14         0       3.361  -0.263   0.000  1.00  0.00     0.074 A 
HETATM   10  C17         0       2.195   0.390   0.000  1.00  0.00     0.068 A 
HETATM   11  C18         0       2.170   1.850   0.000  1.00  0.00     0.037 A 
ENDROOT
BRANCH   3  12
HETATM   12  C10         0       8.352  -0.295  -0.000  1.00  0.00     0.004 A 
HETATM   13  C15         0       8.303  -1.629   0.000  1.00  0.00     0.053 A 
HETATM   14  C19         0       9.558  -2.420   0.000  1.00  0.00     0.099 A 
HETATM   15  C21         0      10.740  -1.798  -0.000  1.00  0.00     0.098 A 
HETATM   16  C20         0      10.794  -0.349  -0.000  1.00  0.00     0.040 A 
HETATM   17  C16         0       9.671   0.360  -0.000  1.00  0.00     0.017 A 
BRANCH  14  18
HETATM   18  O5          0       9.502  -3.815   0.000  1.00  0.00    -0.358 OA
HETATM   19  H30         0      10.418  -4.191   0.000  1.00  0.00     0.217 HD
ENDBRANCH  14  18
BRANCH  15  20
HETATM   20  O6          0      11.928  -2.522  -0.000  1.00  0.00    -0.358 OA
HETATM   21  H31         0      12.695  -1.892  -0.001  1.00  0.00     0.217 HD
ENDBRANCH  15  20
ENDBRANCH   3  12
BRANCH   6  22
HETATM   22  O2          0       8.232   2.612  -0.000  1.00  0.00    -0.355 OA
HETATM   23  H28         0       8.009   3.572  -0.000  1.00  0.00     0.218 HD
ENDBRANCH   6  22
BRANCH  10  24
HETATM   24  O4          0       0.995  -0.311   0.000  1.00  0.00    -0.361 OA
HETATM   25  H29         0       0.240   0.334   0.000  1.00  0.00     0.217 HD
ENDBRANCH  10  24
TORSDOF 5
