REMARK  Name = C:\Users\Maximilian\Desktop\Conformers\converted_pdb\conformers_pdb\Fisetin_conf_1.pdb
REMARK  5 active torsions:
REMARK  status: ('A' for Active; 'I' for Inactive)
REMARK    1  A    between atoms: C7_3  and  C10_12
REMARK    2  A    between atoms: C11_6  and  O2_22
REMARK    3  A    between atoms: C17_10  and  O4_24
REMARK    4  A    between atoms: C19_14  and  O5_18
REMARK    5  A    between atoms: C21_15  and  O6_20
REMARK                            x       y       z     vdW  Elec       q    Type
REMARK                         _______ _______ _______ _____ _____    ______ ____
ROOT
ATOM      1  O1  UNK     0      -0.669  -0.616   0.595  0.00  0.00    +0.000 OA
ATOM      2  O3  UNK     0      -2.001   2.245  -1.881  0.00  0.00    +0.000 OA
ATOM      3  C7  UNK     0       0.226   0.134  -0.045  0.00  0.00    +0.000 A 
ATOM      4  C8  UNK     0      -2.496   0.542  -0.392  0.00  0.00    +0.000 A 
ATOM      5  C9  UNK     0      -1.981  -0.457   0.462  0.00  0.00    +0.000 A 
ATOM      6  C11 UNK     0      -0.209   1.138  -0.935  0.00  0.00    +0.000 A 
ATOM      7  C12 UNK     0      -1.588   1.346  -1.099  0.00  0.00    +0.000 A 
ATOM      8  C13 UNK     0      -3.889   0.697  -0.514  0.00  0.00    +0.000 A 
ATOM      9  C14 UNK     0      -2.854  -1.285   1.176  0.00  0.00    +0.000 A 
ATOM     10  C17 UNK     0      -4.238  -1.127   1.050  0.00  0.00    +0.000 A 
ATOM     11  C18 UNK     0      -4.753  -0.135   0.205  0.00  0.00    +0.000 A 
ENDROOT
BRANCH   3  12
ATOM     12  C10 UNK     0       1.662  -0.135   0.196  0.00  0.00    +0.000 A 
ATOM     13  C15 UNK     0       2.582   0.913   0.380  0.00  0.00    +0.000 A 
ATOM     14  C19 UNK     0       3.934   0.637   0.631  0.00  0.00    +0.000 A 
ATOM     15  C21 UNK     0       4.372  -0.696   0.710  0.00  0.00    +0.000 A 
ATOM     16  C20 UNK     0       3.455  -1.738   0.547  0.00  0.00    +0.000 A 
ATOM     17  C16 UNK     0       2.108  -1.461   0.299  0.00  0.00    +0.000 A 
BRANCH  14  18
ATOM     18  O5  UNK     0       4.841   1.681   0.807  0.00  0.00    +0.000 OA
ATOM     19  H30 UNK     0       4.551   2.651   0.756  0.00  0.00    +0.000 HD
ENDBRANCH  14  18
BRANCH  15  20
ATOM     20  O6  UNK     0       5.711  -1.002   0.953  0.00  0.00    +0.000 OA
ATOM     21  H31 UNK     0       6.413  -0.284   1.079  0.00  0.00    +0.000 HD
ENDBRANCH  15  20
ENDBRANCH   3  12
BRANCH   6  22
ATOM     22  O2  UNK     0       0.717   1.889  -1.662  0.00  0.00    +0.000 OA
ATOM     23  H28 UNK     0       0.437   2.610  -2.316  0.00  0.00    +0.000 HD
ENDBRANCH   6  22
BRANCH  10  24
ATOM     24  O4  UNK     0      -5.092  -1.960   1.769  0.00  0.00    +0.000 OA
ATOM     25  H29 UNK     0      -6.099  -1.872   1.700  0.00  0.00    +0.000 HD
ENDBRANCH  10  24
TORSDOF 5
