REMARK  Name = C:\Users\Maximilian\Desktop\Conformers\converted_pdb\conformers_pdb\FP7_conf_16.pdb
REMARK  8 active torsions:
REMARK  status: ('A' for Active; 'I' for Inactive)
REMARK    1  A    between atoms: N_2  and  C_8
REMARK    2  A    between atoms: C_3  and  C_19
REMARK    3  A    between atoms: C_8  and  C_9
REMARK    4  A    between atoms: C_12  and  C_15
REMARK    5  A    between atoms: C_15  and  C_16
REMARK    6  A    between atoms: C_15  and  O_17
REMARK    7  A    between atoms: C_20  and  C_22
REMARK    8  A    between atoms: C_24  and  C_25
REMARK                            x       y       z     vdW  Elec       q    Type
REMARK                         _______ _______ _______ _____ _____    ______ ____
ROOT
ATOM      1  O   UNL     1      -0.131   3.604   0.262  0.00  0.00    +0.000 OA
ATOM      2  N   UNL     1       0.701   1.576   0.928  0.00  0.00    +0.000 N 
ATOM      3  C   UNL     1       2.685   0.730  -0.153  0.00  0.00    +0.000 A 
ATOM      4  C   UNL     1       1.648   0.598   0.782  0.00  0.00    +0.000 A 
ATOM      5  C   UNL     1       0.745   2.704   0.146  0.00  0.00    +0.000 A 
ATOM      6  C   UNL     1       2.735   1.884  -0.941  0.00  0.00    +0.000 A 
ATOM      7  C   UNL     1       1.765   2.872  -0.793  0.00  0.00    +0.000 A 
ENDROOT
BRANCH   3   8
ATOM      8  C   UNL     1       3.701  -0.333  -0.308  0.00  0.00    +0.000 A 
ATOM      9  C   UNL     1       4.171  -0.902  -1.480  0.00  0.00    +0.000 A 
ATOM     10  O   UNL     1       5.069  -1.811  -1.174  0.00  0.00    +0.000 OA
ATOM     11  C   UNL     1       3.765  -0.572  -2.880  0.00  0.00    +0.000 C 
ATOM     12  N   UNL     1       5.232  -1.900   0.115  0.00  0.00    +0.000 NA
ATOM     13  C   UNL     1       4.407  -0.998   0.683  0.00  0.00    +0.000 A 
ATOM     14  C   UNL     1       4.297  -0.799   2.161  0.00  0.00    +0.000 C 
ENDBRANCH   3   8
BRANCH   2  15
ATOM     15  C   UNL     1      -0.390   1.366   1.895  0.00  0.00    +0.000 C 
BRANCH  15  16
ATOM     16  C   UNL     1      -1.530   0.632   1.240  0.00  0.00    +0.000 A 
ATOM     17  C   UNL     1      -1.533  -0.770   1.192  0.00  0.00    +0.000 A 
ATOM     18  C   UNL     1      -2.569  -1.453   0.547  0.00  0.00    +0.000 A 
ATOM     19  C   UNL     1      -3.610  -0.744  -0.075  0.00  0.00    +0.000 A 
ATOM     20  C   UNL     1      -3.607   0.661  -0.021  0.00  0.00    +0.000 A 
ATOM     21  C   UNL     1      -2.572   1.343   0.625  0.00  0.00    +0.000 A 
BRANCH  19  22
ATOM     22  C   UNL     1      -4.738  -1.486  -0.752  0.00  0.00    +0.000 C 
ATOM     23  C   UNL     1      -5.989  -1.470   0.130  0.00  0.00    +0.000 C 
BRANCH  22  24
ATOM     24  O   UNL     1      -5.015  -0.892  -1.995  0.00  0.00    +0.000 OA
ATOM     25  H   UNL     1      -5.577  -1.535  -2.503  0.00  0.00    +0.000 HD
ENDBRANCH  22  24
ENDBRANCH  19  22
ENDBRANCH  15  16
ENDBRANCH   2  15
TORSDOF 5
