REMARK  Name = C:\Users\Maximilian\Desktop\Conformers\converted_pdb\conformers_pdb\FP7_conf_12.pdb
REMARK  8 active torsions:
REMARK  status: ('A' for Active; 'I' for Inactive)
REMARK    1  A    between atoms: N_2  and  C_8
REMARK    2  A    between atoms: C_3  and  C_19
REMARK    3  A    between atoms: C_8  and  C_9
REMARK    4  A    between atoms: C_12  and  C_15
REMARK    5  A    between atoms: C_15  and  C_16
REMARK    6  A    between atoms: C_15  and  O_17
REMARK    7  A    between atoms: C_20  and  C_22
REMARK    8  A    between atoms: C_24  and  C_25
REMARK                            x       y       z     vdW  Elec       q    Type
REMARK                         _______ _______ _______ _____ _____    ______ ____
ROOT
ATOM      1  O   UNL     1       0.290   3.303  -1.591  0.00  0.00    +0.000 OA
ATOM      2  N   UNL     1       0.738   1.058  -1.494  0.00  0.00    +0.000 N 
ATOM      3  C   UNL     1       2.717   0.326  -0.324  0.00  0.00    +0.000 A 
ATOM      4  C   UNL     1       1.554   0.049  -1.057  0.00  0.00    +0.000 A 
ATOM      5  C   UNL     1       1.041   2.366  -1.206  0.00  0.00    +0.000 A 
ATOM      6  C   UNL     1       3.030   1.658  -0.038  0.00  0.00    +0.000 A 
ATOM      7  C   UNL     1       2.192   2.680  -0.478  0.00  0.00    +0.000 A 
ENDROOT
BRANCH   3   8
ATOM      8  C   UNL     1       3.592  -0.771   0.144  0.00  0.00    +0.000 A 
ATOM      9  C   UNL     1       4.139  -0.951   1.403  0.00  0.00    +0.000 A 
ATOM     10  O   UNL     1       4.852  -2.054   1.396  0.00  0.00    +0.000 OA
ATOM     11  C   UNL     1       3.979  -0.072   2.600  0.00  0.00    +0.000 C 
ATOM     12  N   UNL     1       4.821  -2.631   0.229  0.00  0.00    +0.000 NA
ATOM     13  C   UNL     1       4.055  -1.863  -0.572  0.00  0.00    +0.000 A 
ATOM     14  C   UNL     1       3.772  -2.194  -2.002  0.00  0.00    +0.000 C 
ENDBRANCH   3   8
BRANCH   2  15
ATOM     15  C   UNL     1      -0.491   0.710  -2.225  0.00  0.00    +0.000 C 
BRANCH  15  16
ATOM     16  C   UNL     1      -1.637   0.535  -1.264  0.00  0.00    +0.000 A 
ATOM     17  C   UNL     1      -2.503   1.604  -0.987  0.00  0.00    +0.000 A 
ATOM     18  C   UNL     1      -3.543   1.450  -0.066  0.00  0.00    +0.000 A 
ATOM     19  C   UNL     1      -3.731   0.228   0.601  0.00  0.00    +0.000 A 
ATOM     20  C   UNL     1      -2.857  -0.839   0.326  0.00  0.00    +0.000 A 
ATOM     21  C   UNL     1      -1.817  -0.685  -0.596  0.00  0.00    +0.000 A 
BRANCH  19  22
ATOM     22  C   UNL     1      -4.863   0.072   1.597  0.00  0.00    +0.000 C 
ATOM     23  C   UNL     1      -5.889  -0.969   1.130  0.00  0.00    +0.000 C 
BRANCH  22  24
ATOM     24  O   UNL     1      -4.366  -0.238   2.876  0.00  0.00    +0.000 OA
ATOM     25  H   UNL     1      -4.017  -1.167   2.855  0.00  0.00    +0.000 HD
ENDBRANCH  22  24
ENDBRANCH  19  22
ENDBRANCH  15  16
ENDBRANCH   2  15
TORSDOF 5
