REMARK  Name = C:\Users\Maximilian\Desktop\Conformers\converted_pdb\conformers_pdb\FP7_conf_5.pdb
REMARK  8 active torsions:
REMARK  status: ('A' for Active; 'I' for Inactive)
REMARK    1  A    between atoms: N_2  and  C_8
REMARK    2  A    between atoms: C_3  and  C_19
REMARK    3  A    between atoms: C_8  and  C_9
REMARK    4  A    between atoms: C_12  and  C_15
REMARK    5  A    between atoms: C_15  and  C_16
REMARK    6  A    between atoms: C_15  and  O_17
REMARK    7  A    between atoms: C_20  and  C_22
REMARK    8  A    between atoms: C_24  and  C_25
REMARK                            x       y       z     vdW  Elec       q    Type
REMARK                         _______ _______ _______ _____ _____    ______ ____
ROOT
ATOM      1  O   UNL     1       0.636   0.497  -3.348  0.00  0.00    +0.000 OA
ATOM      2  N   UNL     1      -0.543   1.030  -1.457  0.00  0.00    +0.000 N 
ATOM      3  C   UNL     1      -2.481  -0.291  -0.895  0.00  0.00    +0.000 A 
ATOM      4  C   UNL     1      -1.593   0.759  -0.621  0.00  0.00    +0.000 A 
ATOM      5  C   UNL     1      -0.336   0.264  -2.578  0.00  0.00    +0.000 A 
ATOM      6  C   UNL     1      -2.275  -1.065  -2.041  0.00  0.00    +0.000 A 
ATOM      7  C   UNL     1      -1.202  -0.789  -2.884  0.00  0.00    +0.000 A 
ENDROOT
BRANCH   3   8
ATOM      8  C   UNL     1      -3.610  -0.581   0.017  0.00  0.00    +0.000 A 
ATOM      9  C   UNL     1      -4.010  -1.807   0.520  0.00  0.00    +0.000 A 
ATOM     10  O   UNL     1      -5.052  -1.622   1.297  0.00  0.00    +0.000 OA
ATOM     11  C   UNL     1      -3.397  -3.144   0.255  0.00  0.00    +0.000 C 
ATOM     12  N   UNL     1      -5.378  -0.363   1.358  0.00  0.00    +0.000 NA
ATOM     13  C   UNL     1      -4.512   0.310   0.576  0.00  0.00    +0.000 A 
ATOM     14  C   UNL     1      -4.555   1.792   0.384  0.00  0.00    +0.000 C 
ENDBRANCH   3   8
BRANCH   2  15
ATOM     15  C   UNL     1       0.386   2.115  -1.101  0.00  0.00    +0.000 C 
BRANCH  15  16
ATOM     16  C   UNL     1       1.520   1.577  -0.269  0.00  0.00    +0.000 A 
ATOM     17  C   UNL     1       1.352   1.382   1.111  0.00  0.00    +0.000 A 
ATOM     18  C   UNL     1       2.388   0.845   1.880  0.00  0.00    +0.000 A 
ATOM     19  C   UNL     1       3.610   0.495   1.283  0.00  0.00    +0.000 A 
ATOM     20  C   UNL     1       3.768   0.672  -0.103  0.00  0.00    +0.000 A 
ATOM     21  C   UNL     1       2.732   1.210  -0.871  0.00  0.00    +0.000 A 
BRANCH  19  22
ATOM     22  C   UNL     1       4.714  -0.119   2.113  0.00  0.00    +0.000 C 
ATOM     23  C   UNL     1       4.769  -1.632   1.885  0.00  0.00    +0.000 C 
BRANCH  22  24
ATOM     24  O   UNL     1       5.943   0.467   1.770  0.00  0.00    +0.000 OA
ATOM     25  H   UNL     1       6.584   0.238   2.494  0.00  0.00    +0.000 HD
ENDBRANCH  22  24
ENDBRANCH  19  22
ENDBRANCH  15  16
ENDBRANCH   2  15
TORSDOF 5
