REMARK  Name = C:\Users\Maximilian\Desktop\Conformers\converted_pdb\conformers_pdb\FP7_conf_7.pdb
REMARK  8 active torsions:
REMARK  status: ('A' for Active; 'I' for Inactive)
REMARK    1  A    between atoms: N_2  and  C_8
REMARK    2  A    between atoms: C_3  and  C_19
REMARK    3  A    between atoms: C_8  and  C_9
REMARK    4  A    between atoms: C_12  and  C_15
REMARK    5  A    between atoms: C_15  and  C_16
REMARK    6  A    between atoms: C_15  and  O_17
REMARK    7  A    between atoms: C_20  and  C_22
REMARK    8  A    between atoms: C_24  and  C_25
REMARK                            x       y       z     vdW  Elec       q    Type
REMARK                         _______ _______ _______ _____ _____    ______ ____
ROOT
ATOM      1  O   UNL     1       0.219  -3.596  -0.870  0.00  0.00    +0.000 OA
ATOM      2  N   UNL     1      -0.722  -1.833   0.250  0.00  0.00    +0.000 N 
ATOM      3  C   UNL     1      -2.493  -0.596  -0.823  0.00  0.00    +0.000 A 
ATOM      4  C   UNL     1      -1.633  -0.811   0.263  0.00  0.00    +0.000 A 
ATOM      5  C   UNL     1      -0.626  -2.660  -0.842  0.00  0.00    +0.000 A 
ATOM      6  C   UNL     1      -2.401  -1.444  -1.931  0.00  0.00    +0.000 A 
ATOM      7  C   UNL     1      -1.468  -2.476  -1.942  0.00  0.00    +0.000 A 
ENDROOT
BRANCH   3   8
ATOM      8  C   UNL     1      -3.474   0.511  -0.800  0.00  0.00    +0.000 A 
ATOM      9  C   UNL     1      -3.742   1.438  -1.793  0.00  0.00    +0.000 A 
ATOM     10  O   UNL     1      -4.682   2.250  -1.366  0.00  0.00    +0.000 OA
ATOM     11  C   UNL     1      -3.103   1.540  -3.140  0.00  0.00    +0.000 C 
ATOM     12  N   UNL     1      -5.060   1.942  -0.159  0.00  0.00    +0.000 NA
ATOM     13  C   UNL     1      -4.339   0.869   0.222  0.00  0.00    +0.000 A 
ATOM     14  C   UNL     1      -4.483   0.214   1.557  0.00  0.00    +0.000 C 
ENDBRANCH   3   8
BRANCH   2  15
ATOM     15  C   UNL     1       0.185  -1.989   1.399  0.00  0.00    +0.000 C 
BRANCH  15  16
ATOM     16  C   UNL     1       1.443  -1.190   1.182  0.00  0.00    +0.000 A 
ATOM     17  C   UNL     1       2.580  -1.792   0.622  0.00  0.00    +0.000 A 
ATOM     18  C   UNL     1       3.733  -1.039   0.385  0.00  0.00    +0.000 A 
ATOM     19  C   UNL     1       3.769   0.330   0.698  0.00  0.00    +0.000 A 
ATOM     20  C   UNL     1       2.624   0.932   1.250  0.00  0.00    +0.000 A 
ATOM     21  C   UNL     1       1.471   0.179   1.487  0.00  0.00    +0.000 A 
BRANCH  19  22
ATOM     22  C   UNL     1       5.023   1.139   0.429  0.00  0.00    +0.000 C 
ATOM     23  C   UNL     1       4.784   2.212  -0.642  0.00  0.00    +0.000 C 
BRANCH  22  24
ATOM     24  O   UNL     1       5.520   1.704   1.617  0.00  0.00    +0.000 OA
ATOM     25  H   UNL     1       4.903   2.429   1.897  0.00  0.00    +0.000 HD
ENDBRANCH  22  24
ENDBRANCH  19  22
ENDBRANCH  15  16
ENDBRANCH   2  15
TORSDOF 5
