REMARK  Name = C:\Users\Maximilian\Desktop\Conformers\converted_pdb\conformers_pdb\FP7_conf_8.pdb
REMARK  8 active torsions:
REMARK  status: ('A' for Active; 'I' for Inactive)
REMARK    1  A    between atoms: N_2  and  C_8
REMARK    2  A    between atoms: C_3  and  C_19
REMARK    3  A    between atoms: C_8  and  C_9
REMARK    4  A    between atoms: C_12  and  C_15
REMARK    5  A    between atoms: C_15  and  C_16
REMARK    6  A    between atoms: C_15  and  O_17
REMARK    7  A    between atoms: C_20  and  C_22
REMARK    8  A    between atoms: C_24  and  C_25
REMARK                            x       y       z     vdW  Elec       q    Type
REMARK                         _______ _______ _______ _____ _____    ______ ____
ROOT
ATOM      1  O   UNL     1       0.066   3.519  -0.146  0.00  0.00    +0.000 OA
ATOM      2  N   UNL     1      -0.708   1.479  -0.846  0.00  0.00    +0.000 N 
ATOM      3  C   UNL     1      -2.714   0.597   0.164  0.00  0.00    +0.000 A 
ATOM      4  C   UNL     1      -1.644   0.485  -0.736  0.00  0.00    +0.000 A 
ATOM      5  C   UNL     1      -0.796   2.603  -0.061  0.00  0.00    +0.000 A 
ATOM      6  C   UNL     1      -2.807   1.744   0.958  0.00  0.00    +0.000 A 
ATOM      7  C   UNL     1      -1.849   2.748   0.847  0.00  0.00    +0.000 A 
ENDROOT
BRANCH   3   8
ATOM      8  C   UNL     1      -3.722  -0.480   0.274  0.00  0.00    +0.000 A 
ATOM      9  C   UNL     1      -4.379  -1.144  -0.749  0.00  0.00    +0.000 A 
ATOM     10  O   UNL     1      -5.191  -2.030  -0.219  0.00  0.00    +0.000 OA
ATOM     11  C   UNL     1      -4.224  -0.933  -2.221  0.00  0.00    +0.000 C 
ATOM     12  N   UNL     1      -5.132  -2.008   1.081  0.00  0.00    +0.000 NA
ATOM     13  C   UNL     1      -4.230  -1.067   1.422  0.00  0.00    +0.000 A 
ATOM     14  C   UNL     1      -3.884  -0.734   2.838  0.00  0.00    +0.000 C 
ENDBRANCH   3   8
BRANCH   2  15
ATOM     15  C   UNL     1       0.417   1.293  -1.778  0.00  0.00    +0.000 C 
BRANCH  15  16
ATOM     16  C   UNL     1       1.563   0.609  -1.081  0.00  0.00    +0.000 A 
ATOM     17  C   UNL     1       2.584   1.364  -0.484  0.00  0.00    +0.000 A 
ATOM     18  C   UNL     1       3.627   0.728   0.196  0.00  0.00    +0.000 A 
ATOM     19  C   UNL     1       3.664  -0.675   0.295  0.00  0.00    +0.000 A 
ATOM     20  C   UNL     1       2.635  -1.426  -0.298  0.00  0.00    +0.000 A 
ATOM     21  C   UNL     1       1.592  -0.790  -0.976  0.00  0.00    +0.000 A 
BRANCH  19  22
ATOM     22  C   UNL     1       4.791  -1.375   1.030  0.00  0.00    +0.000 C 
ATOM     23  C   UNL     1       6.150  -1.116   0.368  0.00  0.00    +0.000 C 
BRANCH  22  24
ATOM     24  O   UNL     1       4.806  -1.009   2.388  0.00  0.00    +0.000 OA
ATOM     25  H   UNL     1       5.083  -0.058   2.449  0.00  0.00    +0.000 HD
ENDBRANCH  22  24
ENDBRANCH  19  22
ENDBRANCH  15  16
ENDBRANCH   2  15
TORSDOF 5
