REMARK  Name = C:\Users\Maximilian\Desktop\Conformers\converted_pdb\conformers_pdb\FP7_conf_11.pdb
REMARK  8 active torsions:
REMARK  status: ('A' for Active; 'I' for Inactive)
REMARK    1  A    between atoms: N_2  and  C_8
REMARK    2  A    between atoms: C_3  and  C_19
REMARK    3  A    between atoms: C_8  and  C_9
REMARK    4  A    between atoms: C_12  and  C_15
REMARK    5  A    between atoms: C_15  and  C_16
REMARK    6  A    between atoms: C_15  and  O_17
REMARK    7  A    between atoms: C_20  and  C_22
REMARK    8  A    between atoms: C_24  and  C_25
REMARK                            x       y       z     vdW  Elec       q    Type
REMARK                         _______ _______ _______ _____ _____    ______ ____
ROOT
ATOM      1  O   UNL     1      -0.390   2.592   2.464  0.00  0.00    +0.000 OA
ATOM      2  N   UNL     1      -0.919   0.539   1.595  0.00  0.00    +0.000 N 
ATOM      3  C   UNL     1      -2.732   0.389   0.010  0.00  0.00    +0.000 A 
ATOM      4  C   UNL     1      -1.705  -0.207   0.758  0.00  0.00    +0.000 A 
ATOM      5  C   UNL     1      -1.117   1.894   1.706  0.00  0.00    +0.000 A 
ATOM      6  C   UNL     1      -2.938   1.767   0.129  0.00  0.00    +0.000 A 
ATOM      7  C   UNL     1      -2.130   2.521   0.976  0.00  0.00    +0.000 A 
ENDROOT
BRANCH   3   8
ATOM      8  C   UNL     1      -3.580  -0.425  -0.887  0.00  0.00    +0.000 A 
ATOM      9  C   UNL     1      -4.198  -1.635  -0.616  0.00  0.00    +0.000 A 
ATOM     10  O   UNL     1      -4.855  -2.018  -1.687  0.00  0.00    +0.000 OA
ATOM     11  C   UNL     1      -4.154  -2.415   0.657  0.00  0.00    +0.000 C 
ATOM     12  N   UNL     1      -4.729  -1.155  -2.654  0.00  0.00    +0.000 NA
ATOM     13  C   UNL     1      -3.944  -0.160  -2.198  0.00  0.00    +0.000 A 
ATOM     14  C   UNL     1      -3.562   1.030  -3.019  0.00  0.00    +0.000 C 
ENDBRANCH   3   8
BRANCH   2  15
ATOM     15  C   UNL     1       0.169  -0.126   2.329  0.00  0.00    +0.000 C 
BRANCH  15  16
ATOM     16  C   UNL     1       1.454  -0.040   1.548  0.00  0.00    +0.000 A 
ATOM     17  C   UNL     1       1.693  -0.924   0.485  0.00  0.00    +0.000 A 
ATOM     18  C   UNL     1       2.867  -0.825  -0.266  0.00  0.00    +0.000 A 
ATOM     19  C   UNL     1       3.822   0.165   0.030  0.00  0.00    +0.000 A 
ATOM     20  C   UNL     1       3.576   1.051   1.092  0.00  0.00    +0.000 A 
ATOM     21  C   UNL     1       2.401   0.952   1.842  0.00  0.00    +0.000 A 
BRANCH  19  22
ATOM     22  C   UNL     1       5.100   0.283  -0.778  0.00  0.00    +0.000 C 
ATOM     23  C   UNL     1       5.979  -0.966  -0.635  0.00  0.00    +0.000 C 
BRANCH  22  24
ATOM     24  O   UNL     1       4.816   0.556  -2.128  0.00  0.00    +0.000 OA
ATOM     25  H   UNL     1       4.415  -0.258  -2.530  0.00  0.00    +0.000 HD
ENDBRANCH  22  24
ENDBRANCH  19  22
ENDBRANCH  15  16
ENDBRANCH   2  15
TORSDOF 5
