REMARK  Name = C:\Users\Maximilian\Desktop\Conformers\converted_pdb\conformers_pdb\FP7_conf_1.pdb
REMARK  8 active torsions:
REMARK  status: ('A' for Active; 'I' for Inactive)
REMARK    1  A    between atoms: N_2  and  C_8
REMARK    2  A    between atoms: C_3  and  C_19
REMARK    3  A    between atoms: C_8  and  C_9
REMARK    4  A    between atoms: C_12  and  C_15
REMARK    5  A    between atoms: C_15  and  C_16
REMARK    6  A    between atoms: C_15  and  O_17
REMARK    7  A    between atoms: C_20  and  C_22
REMARK    8  A    between atoms: C_24  and  C_25
REMARK                            x       y       z     vdW  Elec       q    Type
REMARK                         _______ _______ _______ _____ _____    ______ ____
ROOT
ATOM      1  O   UNL     1       0.305   3.010   1.819  0.00  0.00    +0.000 OA
ATOM      2  N   UNL     1      -0.640   1.760   0.148  0.00  0.00    +0.000 N 
ATOM      3  C   UNL     1      -2.670   0.546   0.620  0.00  0.00    +0.000 A 
ATOM      4  C   UNL     1      -1.641   0.918  -0.257  0.00  0.00    +0.000 A 
ATOM      5  C   UNL     1      -0.620   2.245   1.432  0.00  0.00    +0.000 A 
ATOM      6  C   UNL     1      -2.655   1.047   1.926  0.00  0.00    +0.000 A 
ATOM      7  C   UNL     1      -1.630   1.896   2.333  0.00  0.00    +0.000 A 
ENDROOT
BRANCH   3   8
ATOM      8  C   UNL     1      -3.749  -0.364   0.175  0.00  0.00    +0.000 A 
ATOM      9  C   UNL     1      -4.256  -1.474   0.830  0.00  0.00    +0.000 A 
ATOM     10  O   UNL     1      -5.203  -2.001   0.087  0.00  0.00    +0.000 OA
ATOM     11  C   UNL     1      -3.837  -2.020   2.155  0.00  0.00    +0.000 C 
ATOM     12  N   UNL     1      -5.364  -1.333  -1.019  0.00  0.00    +0.000 NA
ATOM     13  C   UNL     1      -4.486  -0.311  -0.997  0.00  0.00    +0.000 A 
ATOM     14  C   UNL     1      -4.361   0.690  -2.100  0.00  0.00    +0.000 C 
ENDBRANCH   3   8
BRANCH   2  15
ATOM     15  C   UNL     1       0.437   2.087  -0.801  0.00  0.00    +0.000 C 
BRANCH  15  16
ATOM     16  C   UNL     1       1.561   1.092  -0.676  0.00  0.00    +0.000 A 
ATOM     17  C   UNL     1       1.492  -0.138  -1.348  0.00  0.00    +0.000 A 
ATOM     18  C   UNL     1       2.515  -1.080  -1.205  0.00  0.00    +0.000 A 
ATOM     19  C   UNL     1       3.622  -0.812  -0.382  0.00  0.00    +0.000 A 
ATOM     20  C   UNL     1       3.684   0.420   0.295  0.00  0.00    +0.000 A 
ATOM     21  C   UNL     1       2.660   1.361   0.152  0.00  0.00    +0.000 A 
BRANCH  19  22
ATOM     22  C   UNL     1       4.726  -1.840  -0.235  0.00  0.00    +0.000 C 
ATOM     23  C   UNL     1       6.058  -1.323  -0.794  0.00  0.00    +0.000 C 
BRANCH  22  24
ATOM     24  O   UNL     1       4.857  -2.246   1.105  0.00  0.00    +0.000 OA
ATOM     25  H   UNL     1       5.246  -1.492   1.620  0.00  0.00    +0.000 HD
ENDBRANCH  22  24
ENDBRANCH  19  22
ENDBRANCH  15  16
ENDBRANCH   2  15
TORSDOF 5
