REMARK  Name = C:\Users\Maximilian\Desktop\Conformers\converted_pdb\conformers_pdb\FP7_conf_2.pdb
REMARK  8 active torsions:
REMARK  status: ('A' for Active; 'I' for Inactive)
REMARK    1  A    between atoms: N_2  and  C_8
REMARK    2  A    between atoms: C_3  and  C_19
REMARK    3  A    between atoms: C_8  and  C_9
REMARK    4  A    between atoms: C_12  and  C_15
REMARK    5  A    between atoms: C_15  and  C_16
REMARK    6  A    between atoms: C_15  and  O_17
REMARK    7  A    between atoms: C_20  and  C_22
REMARK    8  A    between atoms: C_24  and  C_25
REMARK                            x       y       z     vdW  Elec       q    Type
REMARK                         _______ _______ _______ _____ _____    ______ ____
ROOT
ATOM      1  O   UNL     1       0.236  -2.940   2.046  0.00  0.00    +0.000 OA
ATOM      2  N   UNL     1      -0.677  -1.796   0.284  0.00  0.00    +0.000 N 
ATOM      3  C   UNL     1      -2.572  -0.361   0.696  0.00  0.00    +0.000 A 
ATOM      4  C   UNL     1      -1.621  -0.915  -0.173  0.00  0.00    +0.000 A 
ATOM      5  C   UNL     1      -0.638  -2.141   1.613  0.00  0.00    +0.000 A 
ATOM      6  C   UNL     1      -2.537  -0.719   2.047  0.00  0.00    +0.000 A 
ATOM      7  C   UNL     1      -1.570  -1.609   2.507  0.00  0.00    +0.000 A 
ENDROOT
BRANCH   3   8
ATOM      8  C   UNL     1      -3.589   0.589   0.194  0.00  0.00    +0.000 A 
ATOM      9  C   UNL     1      -4.382   0.475  -0.935  0.00  0.00    +0.000 A 
ATOM     10  O   UNL     1      -5.148   1.538  -1.018  0.00  0.00    +0.000 OA
ATOM     11  C   UNL     1      -4.400  -0.643  -1.927  0.00  0.00    +0.000 C 
ATOM     12  N   UNL     1      -4.933   2.355  -0.027  0.00  0.00    +0.000 NA
ATOM     13  C   UNL     1      -3.972   1.804   0.740  0.00  0.00    +0.000 A 
ATOM     14  C   UNL     1      -3.442   2.444   1.982  0.00  0.00    +0.000 C 
ENDBRANCH   3   8
BRANCH   2  15
ATOM     15  C   UNL     1       0.323  -2.317  -0.663  0.00  0.00    +0.000 C 
BRANCH  15  16
ATOM     16  C   UNL     1       1.529  -1.416  -0.695  0.00  0.00    +0.000 A 
ATOM     17  C   UNL     1       1.530  -0.267  -1.499  0.00  0.00    +0.000 A 
ATOM     18  C   UNL     1       2.631   0.594  -1.501  0.00  0.00    +0.000 A 
ATOM     19  C   UNL     1       3.751   0.317  -0.701  0.00  0.00    +0.000 A 
ATOM     20  C   UNL     1       3.740  -0.825   0.120  0.00  0.00    +0.000 A 
ATOM     21  C   UNL     1       2.638  -1.684   0.122  0.00  0.00    +0.000 A 
BRANCH  19  22
ATOM     22  C   UNL     1       4.927   1.269  -0.682  0.00  0.00    +0.000 C 
ATOM     23  C   UNL     1       4.881   2.143   0.569  0.00  0.00    +0.000 C 
BRANCH  22  24
ATOM     24  O   UNL     1       6.137   0.558  -0.707  0.00  0.00    +0.000 OA
ATOM     25  H   UNL     1       6.231   0.187  -1.624  0.00  0.00    +0.000 HD
ENDBRANCH  22  24
ENDBRANCH  19  22
ENDBRANCH  15  16
ENDBRANCH   2  15
TORSDOF 5
