REMARK  5 active torsions:
REMARK  status: ('A' for Active; 'I' for Inactive)
REMARK    1  A    between atoms: O_2  and  C_15 
REMARK    2  A    between atoms: N_4  and  C_6 
REMARK    3  A    between atoms: C_6  and  C_7 
REMARK    4  A    between atoms: C_8  and  C_10 
REMARK    5  A    between atoms: C_11  and  C_15 
ROOT
HETATM    1  O   UNL     1      -0.053  -3.785  -0.546  1.00  0.00    -0.268 OA
HETATM    2  N   UNL     1       0.394  -1.736   0.489  1.00  0.00    -0.320 N 
HETATM    3  C   UNL     1       2.274  -0.450  -0.240  1.00  0.00    -0.005 A 
HETATM    4  C   UNL     1       1.208  -0.617   0.564  1.00  0.00     0.107 A 
HETATM    5  C   UNL     1       0.627  -2.768  -0.426  1.00  0.00     0.247 A 
HETATM    6  C   UNL     1       2.568  -1.489  -1.208  1.00  0.00     0.019 A 
HETATM    7  C   UNL     1       1.810  -2.586  -1.315  1.00  0.00     0.075 A 
ENDROOT
BRANCH   2   8
HETATM    8  C   UNL     1      -0.735  -1.811   1.410  1.00  0.00     0.170 C 
BRANCH   8   9
HETATM    9  C   UNL     1      -1.873  -0.932   0.976  1.00  0.00    -0.040 A 
HETATM   10  C   UNL     1      -2.475  -1.132  -0.266  1.00  0.00     0.009 A 
HETATM   11  C   UNL     1      -3.532  -0.315  -0.668  1.00  0.00     0.010 A 
HETATM   12  C   UNL     1      -3.986   0.703   0.172  1.00  0.00    -0.030 A 
HETATM   13  C   UNL     1      -3.383   0.902   1.414  1.00  0.00     0.010 A 
HETATM   14  C   UNL     1      -2.327   0.085   1.816  1.00  0.00     0.009 A 
BRANCH  12  15
HETATM   15  C   UNL     1      -5.113   1.578  -0.259  1.00  0.00     0.147 C 
HETATM   16  C   UNL     1      -4.825   2.312  -1.573  1.00  0.00     0.044 C 
BRANCH  15  17
HETATM   17  O   UNL     1      -6.303   0.799  -0.424  1.00  0.00    -0.391 OA
HETATM   18  H   UNL     1      -7.017   1.407  -0.683  1.00  0.00     0.210 HD
ENDBRANCH  15  17
ENDBRANCH  12  15
ENDBRANCH   8   9
ENDBRANCH   2   8
BRANCH   3  19
HETATM   19  C   UNL     1       3.097   0.766  -0.093  1.00  0.00     0.033 A 
HETATM   20  C   UNL     1       4.427   0.819   0.230  1.00  0.00     0.088 A 
HETATM   21  O   UNL     1       4.835   2.113   0.273  1.00  0.00    -0.217 OA
HETATM   22  C   UNL     1       5.451  -0.192   0.529  1.00  0.00     0.080 C 
HETATM   23  N   UNL     1       3.762   2.943  -0.026  1.00  0.00    -0.133 NA
HETATM   24  C   UNL     1       2.735   2.116  -0.241  1.00  0.00     0.072 A 
HETATM   25  C   UNL     1       1.416   2.674  -0.589  1.00  0.00     0.074 C 
ENDBRANCH   3  19
TORSDOF 5
