REMARK  Name = C:\Users\Maximilian\Desktop\Conformers\converted_pdb\conformers_pdb\FP7_conf_4.pdb
REMARK  8 active torsions:
REMARK  status: ('A' for Active; 'I' for Inactive)
REMARK    1  A    between atoms: N_2  and  C_8
REMARK    2  A    between atoms: C_3  and  C_19
REMARK    3  A    between atoms: C_8  and  C_9
REMARK    4  A    between atoms: C_12  and  C_15
REMARK    5  A    between atoms: C_15  and  C_16
REMARK    6  A    between atoms: C_15  and  O_17
REMARK    7  A    between atoms: C_20  and  C_22
REMARK    8  A    between atoms: C_24  and  C_25
REMARK                            x       y       z     vdW  Elec       q    Type
REMARK                         _______ _______ _______ _____ _____    ______ ____
ROOT
ATOM      1  O   UNL     1       0.176   0.920   3.361  0.00  0.00    +0.000 OA
ATOM      2  N   UNL     1      -0.696   1.179   1.258  0.00  0.00    +0.000 N 
ATOM      3  C   UNL     1      -2.699  -0.034   0.680  0.00  0.00    +0.000 A 
ATOM      4  C   UNL     1      -1.663   0.850   0.346  0.00  0.00    +0.000 A 
ATOM      5  C   UNL     1      -0.718   0.634   2.518  0.00  0.00    +0.000 A 
ATOM      6  C   UNL     1      -2.727  -0.581   1.967  0.00  0.00    +0.000 A 
ATOM      7  C   UNL     1      -1.737  -0.249   2.886  0.00  0.00    +0.000 A 
ENDROOT
BRANCH   3   8
ATOM      8  C   UNL     1      -3.740  -0.383  -0.310  0.00  0.00    +0.000 A 
ATOM      9  C   UNL     1      -4.452   0.468  -1.139  0.00  0.00    +0.000 A 
ATOM     10  O   UNL     1      -5.277  -0.249  -1.867  0.00  0.00    +0.000 OA
ATOM     11  C   UNL     1      -4.337   1.955  -1.234  0.00  0.00    +0.000 C 
ATOM     12  N   UNL     1      -5.177  -1.517  -1.585  0.00  0.00    +0.000 NA
ATOM     13  C   UNL     1      -4.234  -1.638  -0.631  0.00  0.00    +0.000 A 
ATOM     14  C   UNL     1      -3.825  -2.948  -0.039  0.00  0.00    +0.000 C 
ENDBRANCH   3   8
BRANCH   2  15
ATOM     15  C   UNL     1       0.392   2.081   0.844  0.00  0.00    +0.000 C 
BRANCH  15  16
ATOM     16  C   UNL     1       1.542   1.286   0.284  0.00  0.00    +0.000 A 
ATOM     17  C   UNL     1       2.617   0.914   1.106  0.00  0.00    +0.000 A 
ATOM     18  C   UNL     1       3.665   0.145   0.593  0.00  0.00    +0.000 A 
ATOM     19  C   UNL     1       3.647  -0.279  -0.747  0.00  0.00    +0.000 A 
ATOM     20  C   UNL     1       2.573   0.098  -1.569  0.00  0.00    +0.000 A 
ATOM     21  C   UNL     1       1.525   0.868  -1.055  0.00  0.00    +0.000 A 
BRANCH  19  22
ATOM     22  C   UNL     1       4.792  -1.087  -1.315  0.00  0.00    +0.000 C 
ATOM     23  C   UNL     1       5.997  -0.181  -1.582  0.00  0.00    +0.000 C 
BRANCH  22  24
ATOM     24  O   UNL     1       5.143  -2.106  -0.415  0.00  0.00    +0.000 OA
ATOM     25  H   UNL     1       5.704  -2.754  -0.918  0.00  0.00    +0.000 HD
ENDBRANCH  22  24
ENDBRANCH  19  22
ENDBRANCH  15  16
ENDBRANCH   2  15
TORSDOF 5
