REMARK  Name = C:\Users\Maximilian\Desktop\Conformers\converted_pdb\conformers_pdb\FP7_conf_10.pdb
REMARK  8 active torsions:
REMARK  status: ('A' for Active; 'I' for Inactive)
REMARK    1  A    between atoms: N_2  and  C_8
REMARK    2  A    between atoms: C_3  and  C_19
REMARK    3  A    between atoms: C_8  and  C_9
REMARK    4  A    between atoms: C_12  and  C_15
REMARK    5  A    between atoms: C_15  and  C_16
REMARK    6  A    between atoms: C_15  and  O_17
REMARK    7  A    between atoms: C_20  and  C_22
REMARK    8  A    between atoms: C_24  and  C_25
REMARK                            x       y       z     vdW  Elec       q    Type
REMARK                         _______ _______ _______ _____ _____    ______ ____
ROOT
ATOM      1  O   UNL     1      -0.303  -2.972   2.428  0.00  0.00    +0.000 OA
ATOM      2  N   UNL     1      -0.606  -0.779   1.833  0.00  0.00    +0.000 N 
ATOM      3  C   UNL     1      -2.544  -0.196   0.520  0.00  0.00    +0.000 A 
ATOM      4  C   UNL     1      -1.362   0.160   1.184  0.00  0.00    +0.000 A 
ATOM      5  C   UNL     1      -1.000  -2.095   1.847  0.00  0.00    +0.000 A 
ATOM      6  C   UNL     1      -2.954  -1.533   0.548  0.00  0.00    +0.000 A 
ATOM      7  C   UNL     1      -2.184  -2.483   1.213  0.00  0.00    +0.000 A 
ENDROOT
BRANCH   3   8
ATOM      8  C   UNL     1      -3.325   0.820  -0.218  0.00  0.00    +0.000 A 
ATOM      9  C   UNL     1      -4.692   1.035  -0.194  0.00  0.00    +0.000 A 
ATOM     10  O   UNL     1      -4.973   2.035  -0.998  0.00  0.00    +0.000 OA
ATOM     11  C   UNL     1      -5.719   0.282   0.589  0.00  0.00    +0.000 C 
ATOM     12  N   UNL     1      -3.896   2.510  -1.556  0.00  0.00    +0.000 NA
ATOM     13  C   UNL     1      -2.858   1.781  -1.102  0.00  0.00    +0.000 A 
ATOM     14  C   UNL     1      -1.440   2.019  -1.514  0.00  0.00    +0.000 C 
ENDBRANCH   3   8
BRANCH   2  15
ATOM     15  C   UNL     1       0.664  -0.357   2.445  0.00  0.00    +0.000 C 
BRANCH  15  16
ATOM     16  C   UNL     1       1.750  -0.317   1.403  0.00  0.00    +0.000 A 
ATOM     17  C   UNL     1       1.973   0.852   0.659  0.00  0.00    +0.000 A 
ATOM     18  C   UNL     1       2.940   0.875  -0.349  0.00  0.00    +0.000 A 
ATOM     19  C   UNL     1       3.699  -0.275  -0.635  0.00  0.00    +0.000 A 
ATOM     20  C   UNL     1       3.466  -1.447   0.106  0.00  0.00    +0.000 A 
ATOM     21  C   UNL     1       2.496  -1.468   1.113  0.00  0.00    +0.000 A 
BRANCH  19  22
ATOM     22  C   UNL     1       4.747  -0.264  -1.731  0.00  0.00    +0.000 C 
ATOM     23  C   UNL     1       4.119  -0.035  -3.113  0.00  0.00    +0.000 C 
BRANCH  22  24
ATOM     24  O   UNL     1       5.746   0.688  -1.459  0.00  0.00    +0.000 OA
ATOM     25  H   UNL     1       5.353   1.592  -1.581  0.00  0.00    +0.000 HD
ENDBRANCH  22  24
ENDBRANCH  19  22
ENDBRANCH  15  16
ENDBRANCH   2  15
TORSDOF 5
