REMARK  Name = C:\Users\Maximilian\Desktop\Conformers\converted_pdb\conformers_pdb\FP7_conf_15.pdb
REMARK  8 active torsions:
REMARK  status: ('A' for Active; 'I' for Inactive)
REMARK    1  A    between atoms: N_2  and  C_8
REMARK    2  A    between atoms: C_3  and  C_19
REMARK    3  A    between atoms: C_8  and  C_9
REMARK    4  A    between atoms: C_12  and  C_15
REMARK    5  A    between atoms: C_15  and  C_16
REMARK    6  A    between atoms: C_15  and  O_17
REMARK    7  A    between atoms: C_20  and  C_22
REMARK    8  A    between atoms: C_24  and  C_25
REMARK                            x       y       z     vdW  Elec       q    Type
REMARK                         _______ _______ _______ _____ _____    ______ ____
ROOT
ATOM      1  O   UNL     1      -0.101  -0.021   3.838  0.00  0.00    +0.000 OA
ATOM      2  N   UNL     1      -0.793   0.812   1.819  0.00  0.00    +0.000 N 
ATOM      3  C   UNL     1      -2.600  -0.299   0.669  0.00  0.00    +0.000 A 
ATOM      4  C   UNL     1      -1.632   0.714   0.741  0.00  0.00    +0.000 A 
ATOM      5  C   UNL     1      -0.878  -0.094   2.847  0.00  0.00    +0.000 A 
ATOM      6  C   UNL     1      -2.692  -1.216   1.721  0.00  0.00    +0.000 A 
ATOM      7  C   UNL     1      -1.831  -1.115   2.810  0.00  0.00    +0.000 A 
ENDROOT
BRANCH   3   8
ATOM      8  C   UNL     1      -3.503  -0.396  -0.498  0.00  0.00    +0.000 A 
ATOM      9  C   UNL     1      -4.217   0.617  -1.115  0.00  0.00    +0.000 A 
ATOM     10  O   UNL     1      -4.893   0.103  -2.117  0.00  0.00    +0.000 OA
ATOM     11  C   UNL     1      -4.246   2.065  -0.747  0.00  0.00    +0.000 C 
ATOM     12  N   UNL     1      -4.691  -1.179  -2.216  0.00  0.00    +0.000 NA
ATOM     13  C   UNL     1      -3.833  -1.523  -1.235  0.00  0.00    +0.000 A 
ATOM     14  C   UNL     1      -3.350  -2.920  -1.016  0.00  0.00    +0.000 C 
ENDBRANCH   3   8
BRANCH   2  15
ATOM     15  C   UNL     1       0.232   1.869   1.825  0.00  0.00    +0.000 C 
BRANCH  15  16
ATOM     16  C   UNL     1       1.501   1.367   1.189  0.00  0.00    +0.000 A 
ATOM     17  C   UNL     1       2.524   0.821   1.979  0.00  0.00    +0.000 A 
ATOM     18  C   UNL     1       3.685   0.319   1.383  0.00  0.00    +0.000 A 
ATOM     19  C   UNL     1       3.842   0.356  -0.012  0.00  0.00    +0.000 A 
ATOM     20  C   UNL     1       2.807   0.884  -0.803  0.00  0.00    +0.000 A 
ATOM     21  C   UNL     1       1.647   1.387  -0.207  0.00  0.00    +0.000 A 
BRANCH  19  22
ATOM     22  C   UNL     1       5.086  -0.220  -0.653  0.00  0.00    +0.000 C 
ATOM     23  C   UNL     1       4.792  -1.602  -1.232  0.00  0.00    +0.000 C 
BRANCH  22  24
ATOM     24  O   UNL     1       5.548   0.624  -1.676  0.00  0.00    +0.000 OA
ATOM     25  H   UNL     1       5.937   1.423  -1.232  0.00  0.00    +0.000 HD
ENDBRANCH  22  24
ENDBRANCH  19  22
ENDBRANCH  15  16
ENDBRANCH   2  15
TORSDOF 5
