REMARK  Name = C:\Users\Maximilian\Desktop\Conformers\converted_pdb\conformers_pdb\FP7_conf_14.pdb
REMARK  8 active torsions:
REMARK  status: ('A' for Active; 'I' for Inactive)
REMARK    1  A    between atoms: N_2  and  C_8
REMARK    2  A    between atoms: C_3  and  C_19
REMARK    3  A    between atoms: C_8  and  C_9
REMARK    4  A    between atoms: C_12  and  C_15
REMARK    5  A    between atoms: C_15  and  C_16
REMARK    6  A    between atoms: C_15  and  O_17
REMARK    7  A    between atoms: C_20  and  C_22
REMARK    8  A    between atoms: C_24  and  C_25
REMARK                            x       y       z     vdW  Elec       q    Type
REMARK                         _______ _______ _______ _____ _____    ______ ____
ROOT
ATOM      1  O   UNL     1       0.204   0.513  -3.418  0.00  0.00    +0.000 OA
ATOM      2  N   UNL     1      -0.777   0.953  -1.395  0.00  0.00    +0.000 N 
ATOM      3  C   UNL     1      -2.527  -0.514  -0.617  0.00  0.00    +0.000 A 
ATOM      4  C   UNL     1      -1.694   0.600  -0.441  0.00  0.00    +0.000 A 
ATOM      5  C   UNL     1      -0.647   0.205  -2.539  0.00  0.00    +0.000 A 
ATOM      6  C   UNL     1      -2.400  -1.270  -1.786  0.00  0.00    +0.000 A 
ATOM      7  C   UNL     1      -1.460  -0.912  -2.748  0.00  0.00    +0.000 A 
ENDROOT
BRANCH   3   8
ATOM      8  C   UNL     1      -3.515  -0.887   0.418  0.00  0.00    +0.000 A 
ATOM      9  C   UNL     1      -3.762  -2.140   0.954  0.00  0.00    +0.000 A 
ATOM     10  O   UNL     1      -4.718  -2.033   1.848  0.00  0.00    +0.000 OA
ATOM     11  C   UNL     1      -3.087  -3.428   0.607  0.00  0.00    +0.000 C 
ATOM     12  N   UNL     1      -5.127  -0.802   1.958  0.00  0.00    +0.000 NA
ATOM     13  C   UNL     1      -4.409  -0.066   1.087  0.00  0.00    +0.000 A 
ATOM     14  C   UNL     1      -4.584   1.409   0.916  0.00  0.00    +0.000 C 
ENDBRANCH   3   8
BRANCH   2  15
ATOM     15  C   UNL     1       0.100   2.108  -1.143  0.00  0.00    +0.000 C 
BRANCH  15  16
ATOM     16  C   UNL     1       1.357   1.665  -0.442  0.00  0.00    +0.000 A 
ATOM     17  C   UNL     1       2.512   1.361  -1.179  0.00  0.00    +0.000 A 
ATOM     18  C   UNL     1       3.665   0.911  -0.531  0.00  0.00    +0.000 A 
ATOM     19  C   UNL     1       3.683   0.760   0.866  0.00  0.00    +0.000 A 
ATOM     20  C   UNL     1       2.520   1.045   1.600  0.00  0.00    +0.000 A 
ATOM     21  C   UNL     1       1.367   1.495   0.950  0.00  0.00    +0.000 A 
BRANCH  19  22
ATOM     22  C   UNL     1       4.918   0.242   1.571  0.00  0.00    +0.000 C 
ATOM     23  C   UNL     1       5.040  -1.269   1.385  0.00  0.00    +0.000 C 
BRANCH  22  24
ATOM     24  O   UNL     1       6.071   0.865   1.067  0.00  0.00    +0.000 OA
ATOM     25  H   UNL     1       6.060   1.800   1.404  0.00  0.00    +0.000 HD
ENDBRANCH  22  24
ENDBRANCH  19  22
ENDBRANCH  15  16
ENDBRANCH   2  15
TORSDOF 5
