REMARK  Name = C:\Users\Maximilian\Desktop\Conformers\converted_pdb\conformers_pdb\FP7_conf_9.pdb
REMARK  8 active torsions:
REMARK  status: ('A' for Active; 'I' for Inactive)
REMARK    1  A    between atoms: N_2  and  C_8
REMARK    2  A    between atoms: C_3  and  C_19
REMARK    3  A    between atoms: C_8  and  C_9
REMARK    4  A    between atoms: C_12  and  C_15
REMARK    5  A    between atoms: C_15  and  C_16
REMARK    6  A    between atoms: C_15  and  O_17
REMARK    7  A    between atoms: C_20  and  C_22
REMARK    8  A    between atoms: C_24  and  C_25
REMARK                            x       y       z     vdW  Elec       q    Type
REMARK                         _______ _______ _______ _____ _____    ______ ____
ROOT
ATOM      1  O   UNL     1      -0.046   3.239   0.205  0.00  0.00    +0.000 OA
ATOM      2  N   UNL     1      -0.933   1.299  -0.626  0.00  0.00    +0.000 N 
ATOM      3  C   UNL     1      -2.771   0.272   0.549  0.00  0.00    +0.000 A 
ATOM      4  C   UNL     1      -1.851   0.290  -0.508  0.00  0.00    +0.000 A 
ATOM      5  C   UNL     1      -0.893   2.310   0.303  0.00  0.00    +0.000 A 
ATOM      6  C   UNL     1      -2.729   1.300   1.495  0.00  0.00    +0.000 A 
ATOM      7  C   UNL     1      -1.790   2.321   1.373  0.00  0.00    +0.000 A 
ENDROOT
BRANCH   3   8
ATOM      8  C   UNL     1      -3.768  -0.814   0.660  0.00  0.00    +0.000 A 
ATOM      9  C   UNL     1      -4.093  -1.568   1.773  0.00  0.00    +0.000 A 
ATOM     10  O   UNL     1      -5.038  -2.418   1.441  0.00  0.00    +0.000 OA
ATOM     11  C   UNL     1      -3.505  -1.469   3.143  0.00  0.00    +0.000 C 
ATOM     12  N   UNL     1      -5.364  -2.296   0.187  0.00  0.00    +0.000 NA
ATOM     13  C   UNL     1      -4.603  -1.311  -0.327  0.00  0.00    +0.000 A 
ATOM     14  C   UNL     1      -4.685  -0.861  -1.750  0.00  0.00    +0.000 C 
ENDBRANCH   3   8
BRANCH   2  15
ATOM     15  C   UNL     1       0.035   1.260  -1.734  0.00  0.00    +0.000 C 
BRANCH  15  16
ATOM     16  C   UNL     1       1.367   0.749  -1.250  0.00  0.00    +0.000 A 
ATOM     17  C   UNL     1       1.512  -0.595  -0.877  0.00  0.00    +0.000 A 
ATOM     18  C   UNL     1       2.738  -1.069  -0.403  0.00  0.00    +0.000 A 
ATOM     19  C   UNL     1       3.842  -0.205  -0.289  0.00  0.00    +0.000 A 
ATOM     20  C   UNL     1       3.693   1.141  -0.668  0.00  0.00    +0.000 A 
ATOM     21  C   UNL     1       2.466   1.614  -1.139  0.00  0.00    +0.000 A 
BRANCH  19  22
ATOM     22  C   UNL     1       5.172  -0.732   0.213  0.00  0.00    +0.000 C 
ATOM     23  C   UNL     1       6.238  -0.706  -0.890  0.00  0.00    +0.000 C 
BRANCH  22  24
ATOM     24  O   UNL     1       5.594  -0.023   1.352  0.00  0.00    +0.000 OA
ATOM     25  H   UNL     1       5.885   0.880   1.063  0.00  0.00    +0.000 HD
ENDBRANCH  22  24
ENDBRANCH  19  22
ENDBRANCH  15  16
ENDBRANCH   2  15
TORSDOF 5
