REMARK  Name = C:\Users\Maximilian\Desktop\Conformers\converted_pdb\conformers_pdb\FP7_conf_6.pdb
REMARK  8 active torsions:
REMARK  status: ('A' for Active; 'I' for Inactive)
REMARK    1  A    between atoms: N_2  and  C_8
REMARK    2  A    between atoms: C_3  and  C_19
REMARK    3  A    between atoms: C_8  and  C_9
REMARK    4  A    between atoms: C_12  and  C_15
REMARK    5  A    between atoms: C_15  and  C_16
REMARK    6  A    between atoms: C_15  and  O_17
REMARK    7  A    between atoms: C_20  and  C_22
REMARK    8  A    between atoms: C_24  and  C_25
REMARK                            x       y       z     vdW  Elec       q    Type
REMARK                         _______ _______ _______ _____ _____    ______ ____
ROOT
ATOM      1  O   UNL     1       0.135  -3.350   1.590  0.00  0.00    +0.000 OA
ATOM      2  N   UNL     1      -0.418  -1.977  -0.159  0.00  0.00    +0.000 N 
ATOM      3  C   UNL     1      -2.598  -0.945  -0.172  0.00  0.00    +0.000 A 
ATOM      4  C   UNL     1      -1.340  -1.158  -0.753  0.00  0.00    +0.000 A 
ATOM      5  C   UNL     1      -0.713  -2.607   1.025  0.00  0.00    +0.000 A 
ATOM      6  C   UNL     1      -2.905  -1.598   1.025  0.00  0.00    +0.000 A 
ATOM      7  C   UNL     1      -1.963  -2.431   1.625  0.00  0.00    +0.000 A 
ENDROOT
BRANCH   3   8
ATOM      8  C   UNL     1      -3.572  -0.030  -0.805  0.00  0.00    +0.000 A 
ATOM      9  C   UNL     1      -4.923  -0.238  -1.029  0.00  0.00    +0.000 A 
ATOM     10  O   UNL     1      -5.419   0.828  -1.613  0.00  0.00    +0.000 OA
ATOM     11  C   UNL     1      -5.728  -1.447  -0.682  0.00  0.00    +0.000 C 
ATOM     12  N   UNL     1      -4.503   1.734  -1.803  0.00  0.00    +0.000 NA
ATOM     13  C   UNL     1      -3.349   1.241  -1.311  0.00  0.00    +0.000 A 
ATOM     14  C   UNL     1      -2.055   1.990  -1.340  0.00  0.00    +0.000 C 
ENDBRANCH   3   8
BRANCH   2  15
ATOM     15  C   UNL     1       0.910  -2.112  -0.780  0.00  0.00    +0.000 C 
BRANCH  15  16
ATOM     16  C   UNL     1       1.823  -1.020  -0.290  0.00  0.00    +0.000 A 
ATOM     17  C   UNL     1       2.652  -1.232   0.822  0.00  0.00    +0.000 A 
ATOM     18  C   UNL     1       3.466  -0.203   1.304  0.00  0.00    +0.000 A 
ATOM     19  C   UNL     1       3.450   1.062   0.692  0.00  0.00    +0.000 A 
ATOM     20  C   UNL     1       2.620   1.272  -0.423  0.00  0.00    +0.000 A 
ATOM     21  C   UNL     1       1.808   0.242  -0.905  0.00  0.00    +0.000 A 
BRANCH  19  22
ATOM     22  C   UNL     1       4.351   2.164   1.199  0.00  0.00    +0.000 C 
ATOM     23  C   UNL     1       5.566   2.319   0.280  0.00  0.00    +0.000 C 
BRANCH  22  24
ATOM     24  O   UNL     1       3.635   3.371   1.261  0.00  0.00    +0.000 OA
ATOM     25  H   UNL     1       4.165   3.992   1.826  0.00  0.00    +0.000 HD
ENDBRANCH  22  24
ENDBRANCH  19  22
ENDBRANCH  15  16
ENDBRANCH   2  15
TORSDOF 5
