REMARK  Name = C:\Users\Maximilian\Desktop\Conformers\converted_pdb\conformers_pdb\FP7_conf_13.pdb
REMARK  8 active torsions:
REMARK  status: ('A' for Active; 'I' for Inactive)
REMARK    1  A    between atoms: N_2  and  C_8
REMARK    2  A    between atoms: C_3  and  C_19
REMARK    3  A    between atoms: C_8  and  C_9
REMARK    4  A    between atoms: C_12  and  C_15
REMARK    5  A    between atoms: C_15  and  C_16
REMARK    6  A    between atoms: C_15  and  O_17
REMARK    7  A    between atoms: C_20  and  C_22
REMARK    8  A    between atoms: C_24  and  C_25
REMARK                            x       y       z     vdW  Elec       q    Type
REMARK                         _______ _______ _______ _____ _____    ______ ____
ROOT
ATOM      1  O   UNL     1      -0.011  -2.961   2.111  0.00  0.00    +0.000 OA
ATOM      2  N   UNL     1      -0.952  -1.629   0.502  0.00  0.00    +0.000 N 
ATOM      3  C   UNL     1      -2.521   0.072   1.183  0.00  0.00    +0.000 A 
ATOM      4  C   UNL     1      -1.794  -0.597   0.187  0.00  0.00    +0.000 A 
ATOM      5  C   UNL     1      -0.795  -2.020   1.809  0.00  0.00    +0.000 A 
ATOM      6  C   UNL     1      -2.367  -0.332   2.513  0.00  0.00    +0.000 A 
ATOM      7  C   UNL     1      -1.504  -1.378   2.827  0.00  0.00    +0.000 A 
ENDROOT
BRANCH   3   8
ATOM      8  C   UNL     1      -3.428   1.186   0.834  0.00  0.00    +0.000 A 
ATOM      9  C   UNL     1      -3.532   2.427   1.441  0.00  0.00    +0.000 A 
ATOM     10  O   UNL     1      -4.459   3.120   0.820  0.00  0.00    +0.000 OA
ATOM     11  C   UNL     1      -2.751   2.939   2.607  0.00  0.00    +0.000 C 
ATOM     12  N   UNL     1      -4.981   2.441  -0.160  0.00  0.00    +0.000 NA
ATOM     13  C   UNL     1      -4.372   1.239  -0.179  0.00  0.00    +0.000 A 
ATOM     14  C   UNL     1      -4.697   0.167  -1.169  0.00  0.00    +0.000 C 
ENDBRANCH   3   8
BRANCH   2  15
ATOM     15  C   UNL     1      -0.181  -2.270  -0.577  0.00  0.00    +0.000 C 
BRANCH  15  16
ATOM     16  C   UNL     1       1.145  -1.578  -0.749  0.00  0.00    +0.000 A 
ATOM     17  C   UNL     1       1.235  -0.405  -1.515  0.00  0.00    +0.000 A 
ATOM     18  C   UNL     1       2.457   0.260  -1.646  0.00  0.00    +0.000 A 
ATOM     19  C   UNL     1       3.607  -0.228  -1.002  0.00  0.00    +0.000 A 
ATOM     20  C   UNL     1       3.515  -1.405  -0.241  0.00  0.00    +0.000 A 
ATOM     21  C   UNL     1       2.293  -2.070  -0.109  0.00  0.00    +0.000 A 
BRANCH  19  22
ATOM     22  C   UNL     1       4.936   0.472  -1.164  0.00  0.00    +0.000 C 
ATOM     23  C   UNL     1       5.529   0.172  -2.542  0.00  0.00    +0.000 C 
BRANCH  22  24
ATOM     24  O   UNL     1       4.764   1.857  -1.003  0.00  0.00    +0.000 OA
ATOM     25  H   UNL     1       5.667   2.245  -0.861  0.00  0.00    +0.000 HD
ENDBRANCH  22  24
ENDBRANCH  19  22
ENDBRANCH  15  16
ENDBRANCH   2  15
TORSDOF 5
