REMARK  Name = C:\Users\Maximilian\Desktop\Conformers\converted_pdb\conformers_pdb\FP7_conf_3.pdb
REMARK  8 active torsions:
REMARK  status: ('A' for Active; 'I' for Inactive)
REMARK    1  A    between atoms: N_2  and  C_8
REMARK    2  A    between atoms: C_3  and  C_19
REMARK    3  A    between atoms: C_8  and  C_9
REMARK    4  A    between atoms: C_12  and  C_15
REMARK    5  A    between atoms: C_15  and  C_16
REMARK    6  A    between atoms: C_15  and  O_17
REMARK    7  A    between atoms: C_20  and  C_22
REMARK    8  A    between atoms: C_24  and  C_25
REMARK                            x       y       z     vdW  Elec       q    Type
REMARK                         _______ _______ _______ _____ _____    ______ ____
ROOT
ATOM      1  O   UNL     1       0.006  -1.134  -3.352  0.00  0.00    +0.000 OA
ATOM      2  N   UNL     1      -0.817   0.285  -1.752  0.00  0.00    +0.000 N 
ATOM      3  C   UNL     1      -2.643  -0.469  -0.368  0.00  0.00    +0.000 A 
ATOM      4  C   UNL     1      -1.706   0.508  -0.735  0.00  0.00    +0.000 A 
ATOM      5  C   UNL     1      -0.818  -0.913  -2.422  0.00  0.00    +0.000 A 
ATOM      6  C   UNL     1      -2.650  -1.686  -1.056  0.00  0.00    +0.000 A 
ATOM      7  C   UNL     1      -1.737  -1.910  -2.084  0.00  0.00    +0.000 A 
ENDROOT
BRANCH   3   8
ATOM      8  C   UNL     1      -3.603  -0.217   0.729  0.00  0.00    +0.000 A 
ATOM      9  C   UNL     1      -4.383   0.908   0.942  0.00  0.00    +0.000 A 
ATOM     10  O   UNL     1      -5.094   0.724   2.030  0.00  0.00    +0.000 OA
ATOM     11  C   UNL     1      -4.440   2.148   0.110  0.00  0.00    +0.000 C 
ATOM     12  N   UNL     1      -4.855  -0.441   2.561  0.00  0.00    +0.000 NA
ATOM     13  C   UNL     1      -3.935  -1.049   1.787  0.00  0.00    +0.000 A 
ATOM     14  C   UNL     1      -3.395  -2.414   2.068  0.00  0.00    +0.000 C 
ENDBRANCH   3   8
BRANCH   2  15
ATOM     15  C   UNL     1       0.172   1.328  -2.072  0.00  0.00    +0.000 C 
BRANCH  15  16
ATOM     16  C   UNL     1       1.438   1.104  -1.290  0.00  0.00    +0.000 A 
ATOM     17  C   UNL     1       2.520   0.423  -1.867  0.00  0.00    +0.000 A 
ATOM     18  C   UNL     1       3.681   0.183  -1.126  0.00  0.00    +0.000 A 
ATOM     19  C   UNL     1       3.777   0.614   0.210  0.00  0.00    +0.000 A 
ATOM     20  C   UNL     1       2.687   1.287   0.787  0.00  0.00    +0.000 A 
ATOM     21  C   UNL     1       1.528   1.528   0.045  0.00  0.00    +0.000 A 
BRANCH  19  22
ATOM     22  C   UNL     1       5.028   0.352   1.026  0.00  0.00    +0.000 C 
ATOM     23  C   UNL     1       5.260  -1.149   1.239  0.00  0.00    +0.000 C 
BRANCH  22  24
ATOM     24  O   UNL     1       6.148   0.965   0.436  0.00  0.00    +0.000 OA
ATOM     25  H   UNL     1       6.370   0.470  -0.395  0.00  0.00    +0.000 HD
ENDBRANCH  22  24
ENDBRANCH  19  22
ENDBRANCH  15  16
ENDBRANCH   2  15
TORSDOF 5
