REMARK  Name = C:\Users\Maximilian\Desktop\Conformers\converted_pdb\conformers_pdb\Gallic Acid_conf_1.pdb
REMARK  5 active torsions:
REMARK  status: ('A' for Active; 'I' for Inactive)
REMARK    1  A    between atoms: C6_1  and  C12_7
REMARK    2  A    between atoms: C7_2  and  O1_15
REMARK    3  A    between atoms: C8_3  and  O2_13
REMARK    4  A    between atoms: C9_4  and  O3_11
REMARK    5  A    between atoms: C12_7  and  O4_9
REMARK                            x       y       z     vdW  Elec       q    Type
REMARK                         _______ _______ _______ _____ _____    ______ ____
ROOT
ATOM      1  C6  UNK     0       1.077  -0.393   0.131  0.00  0.00    +0.000 A 
ATOM      2  C7  UNK     0      -1.664   0.178  -0.198  0.00  0.00    +0.000 A 
ATOM      3  C8  UNK     0      -0.732   1.225  -0.099  0.00  0.00    +0.000 A 
ATOM      4  C9  UNK     0      -1.223  -1.155  -0.132  0.00  0.00    +0.000 A 
ATOM      5  C10 UNK     0       0.630   0.937   0.064  0.00  0.00    +0.000 A 
ATOM      6  C11 UNK     0       0.138  -1.434   0.032  0.00  0.00    +0.000 A 
ENDROOT
BRANCH   1   7
ATOM      7  C12 UNK     0       2.516  -0.690   0.304  0.00  0.00    +0.000 C 
ATOM      8  O5  UNK     0       2.920  -1.883   0.364  0.00  0.00    +0.000 OA
BRANCH   7   9
ATOM      9  O4  UNK     0       3.440   0.347   0.402  0.00  0.00    +0.000 OA
ATOM     10  H18 UNK     0       4.428   0.155   0.520  0.00  0.00    +0.000 HD
ENDBRANCH   7   9
ENDBRANCH   1   7
BRANCH   4  11
ATOM     11  O3  UNK     0      -2.123  -2.216  -0.227  0.00  0.00    +0.000 OA
ATOM     12  H17 UNK     0      -3.119  -2.070  -0.345  0.00  0.00    +0.000 HD
ENDBRANCH   4  11
BRANCH   3  13
ATOM     13  O2  UNK     0      -1.162   2.550  -0.164  0.00  0.00    +0.000 OA
ATOM     14  H16 UNK     0      -0.512   3.324  -0.096  0.00  0.00    +0.000 HD
ENDBRANCH   3  13
BRANCH   2  15
ATOM     15  O1  UNK     0      -3.023   0.447  -0.361  0.00  0.00    +0.000 OA
ATOM     16  H15 UNK     0      -3.384   1.393  -0.414  0.00  0.00    +0.000 HD
ENDBRANCH   2  15
TORSDOF 5
