REMARK  5 active torsions:
REMARK  status: ('A' for Active; 'I' for Inactive)
REMARK    1  A    between atoms: O1_1  and  C7_7 
REMARK    2  A    between atoms: O2_2  and  C8_8 
REMARK    3  A    between atoms: O3_3  and  C9_9 
REMARK    4  A    between atoms: O4_4  and  C12_12 
REMARK    5  A    between atoms: C6_6  and  C12_12 
ROOT
HETATM    1  C6          0       4.240  -0.819   0.000  1.00  0.00     0.043 A 
HETATM    2  C7          0       4.221   1.976  -0.000  1.00  0.00     0.132 A 
HETATM    3  C8          0       3.073   1.301  -0.000  1.00  0.00     0.102 A 
HETATM    4  C9          0       5.496   1.251  -0.000  1.00  0.00     0.102 A 
HETATM    5  C10         0       3.083  -0.162   0.000  1.00  0.00     0.057 A 
HETATM    6  C11         0       5.503  -0.081   0.000  1.00  0.00     0.057 A 
ENDROOT
BRANCH   1   7
HETATM    7  C12         0       4.250  -2.278   0.000  1.00  0.00     0.176 C 
HETATM    8  O5          0       5.324  -2.888   0.001  1.00  0.00    -0.646 OA
BRANCH   7   9
HETATM    9  O4          0       3.050  -2.979   0.000  1.00  0.00    -0.773 OA
HETATM   10  H18         0       3.237  -3.951   0.000  1.00  0.00     0.167 HD
ENDBRANCH   7   9
ENDBRANCH   1   7
BRANCH   4  11
HETATM   11  O3          0       6.698   1.948   0.000  1.00  0.00    -0.358 OA
HETATM   12  H17         0       7.451   1.307   0.000  1.00  0.00     0.217 HD
ENDBRANCH   4  11
BRANCH   3  13
HETATM   13  O2          0       1.865   1.987  -0.000  1.00  0.00    -0.358 OA
HETATM   14  H16         0       1.119   1.338  -0.000  1.00  0.00     0.217 HD
ENDBRANCH   3  13
BRANCH   2  15
HETATM   15  O1          0       4.205   3.367  -0.000  1.00  0.00    -0.356 OA
HETATM   16  H15         0       5.131   3.711  -0.000  1.00  0.00     0.218 HD
ENDBRANCH   2  15
TORSDOF 5
