REMARK  Name = C:\Users\Maximilian\Desktop\Conformers\converted_pdb\conformers_pdb\Ibudilast_conf_6.pdb
REMARK  7 active torsions:
REMARK  status: ('A' for Active; 'I' for Inactive)
REMARK    1  A    between atoms: C4_3  and  C9_10
REMARK    2  A    between atoms: C6_4  and  C5_15
REMARK    3  A    between atoms: C9_10  and  C8_12
REMARK    4  A    between atoms: C8_12  and  C14_13
REMARK    5  A    between atoms: C8_12  and  C13_14
REMARK    6  A    between atoms: C5_15  and  C10_16
REMARK    7  A    between atoms: C5_15  and  C11_17
REMARK                            x       y       z     vdW  Elec       q    Type
REMARK                         _______ _______ _______ _____ _____    ______ ____
ROOT
ATOM      1  N2  UNK     0       2.202  -0.678  -0.287  0.00  0.00    +0.000 N 
ATOM      2  N3  UNK     0       2.248   0.588   0.087  0.00  0.00    +0.000 NA
ATOM      3  C4  UNK     0       0.144  -0.173   0.359  0.00  0.00    +0.000 A 
ATOM      4  C6  UNK     0       1.004   0.921   0.508  0.00  0.00    +0.000 A 
ATOM      5  C7  UNK     0       0.961  -1.172  -0.140  0.00  0.00    +0.000 A 
ATOM      6  C12 UNK     0       0.681  -2.507  -0.441  0.00  0.00    +0.000 A 
ATOM      7  C15 UNK     0       3.245  -1.410  -0.754  0.00  0.00    +0.000 A 
ATOM      8  C16 UNK     0       1.733  -3.300  -0.926  0.00  0.00    +0.000 A 
ATOM      9  C17 UNK     0       3.019  -2.753  -1.089  0.00  0.00    +0.000 A 
ENDROOT
BRANCH   4  10
ATOM     10  C5  UNK     0       0.613   2.325   0.901  0.00  0.00    +0.000 C 
ATOM     11  C10 UNK     0       0.314   3.153  -0.351  0.00  0.00    +0.000 C 
ATOM     12  C11 UNK     0       1.713   2.985   1.740  0.00  0.00    +0.000 C 
ENDBRANCH   4  10
BRANCH   3  13
ATOM     13  C9  UNK     0      -1.304  -0.228   0.642  0.00  0.00    +0.000 C 
ATOM     14  O1  UNK     0      -1.739   0.261   1.721  0.00  0.00    +0.000 OA
BRANCH  13  15
ATOM     15  C8  UNK     0      -2.278  -0.794  -0.362  0.00  0.00    +0.000 C 
ATOM     16  C14 UNK     0      -3.149  -1.881   0.280  0.00  0.00    +0.000 C 
ATOM     17  C13 UNK     0      -3.148   0.326  -0.939  0.00  0.00    +0.000 C 
ENDBRANCH  13  15
ENDBRANCH   3  13
TORSDOF 3
