REMARK  Name = C:\Users\Maximilian\Desktop\Conformers\converted_pdb\conformers_pdb\Ibudilast_conf_5.pdb
REMARK  7 active torsions:
REMARK  status: ('A' for Active; 'I' for Inactive)
REMARK    1  A    between atoms: C4_3  and  C9_10
REMARK    2  A    between atoms: C6_4  and  C5_15
REMARK    3  A    between atoms: C9_10  and  C8_12
REMARK    4  A    between atoms: C8_12  and  C14_13
REMARK    5  A    between atoms: C8_12  and  C13_14
REMARK    6  A    between atoms: C5_15  and  C10_16
REMARK    7  A    between atoms: C5_15  and  C11_17
REMARK                            x       y       z     vdW  Elec       q    Type
REMARK                         _______ _______ _______ _____ _____    ______ ____
ROOT
ATOM      1  N2  UNK     0       0.566   2.153   0.594  0.00  0.00    +0.000 N 
ATOM      2  N3  UNK     0       1.684   1.570   0.200  0.00  0.00    +0.000 NA
ATOM      3  C4  UNK     0       0.032   0.037   0.211  0.00  0.00    +0.000 A 
ATOM      4  C6  UNK     0       1.385   0.273  -0.048  0.00  0.00    +0.000 A 
ATOM      5  C7  UNK     0      -0.447   1.270   0.619  0.00  0.00    +0.000 A 
ATOM      6  C12 UNK     0      -1.716   1.648   1.067  0.00  0.00    +0.000 A 
ATOM      7  C15 UNK     0       0.431   3.453   0.961  0.00  0.00    +0.000 A 
ATOM      8  C16 UNK     0      -1.899   2.986   1.452  0.00  0.00    +0.000 A 
ATOM      9  C17 UNK     0      -0.826   3.895   1.396  0.00  0.00    +0.000 A 
ENDROOT
BRANCH   4  10
ATOM     10  C5  UNK     0       2.406  -0.744  -0.495  0.00  0.00    +0.000 C 
ATOM     11  C10 UNK     0       3.212  -1.240   0.707  0.00  0.00    +0.000 C 
ATOM     12  C11 UNK     0       3.330  -0.156  -1.567  0.00  0.00    +0.000 C 
ENDBRANCH   4  10
BRANCH   3  13
ATOM     13  C9  UNK     0      -0.691  -1.246   0.105  0.00  0.00    +0.000 C 
ATOM     14  O1  UNK     0      -0.143  -2.296   0.537  0.00  0.00    +0.000 OA
BRANCH  13  15
ATOM     15  C8  UNK     0      -2.034  -1.337  -0.578  0.00  0.00    +0.000 C 
ATOM     16  C14 UNK     0      -1.907  -2.129  -1.883  0.00  0.00    +0.000 C 
ATOM     17  C13 UNK     0      -3.071  -1.981   0.349  0.00  0.00    +0.000 C 
ENDBRANCH  13  15
ENDBRANCH   3  13
TORSDOF 3
