REMARK  Name = C:\Users\Maximilian\Desktop\Conformers\converted_pdb\conformers_pdb\Ibudilast_conf_1.pdb
REMARK  7 active torsions:
REMARK  status: ('A' for Active; 'I' for Inactive)
REMARK    1  A    between atoms: C4_3  and  C9_10
REMARK    2  A    between atoms: C6_4  and  C5_15
REMARK    3  A    between atoms: C9_10  and  C8_12
REMARK    4  A    between atoms: C8_12  and  C14_13
REMARK    5  A    between atoms: C8_12  and  C13_14
REMARK    6  A    between atoms: C5_15  and  C10_16
REMARK    7  A    between atoms: C5_15  and  C11_17
REMARK                            x       y       z     vdW  Elec       q    Type
REMARK                         _______ _______ _______ _____ _____    ______ ____
ROOT
ATOM      1  N2  UNK     0      -1.476   2.057   0.571  0.00  0.00    +0.000 N 
ATOM      2  N3  UNK     0      -2.225   0.983   0.750  0.00  0.00    +0.000 NA
ATOM      3  C4  UNK     0      -0.297   0.368  -0.237  0.00  0.00    +0.000 A 
ATOM      4  C6  UNK     0      -1.534  -0.073   0.254  0.00  0.00    +0.000 A 
ATOM      5  C7  UNK     0      -0.320   1.731  -0.025  0.00  0.00    +0.000 A 
ATOM      6  C12 UNK     0       0.626   2.705  -0.348  0.00  0.00    +0.000 A 
ATOM      7  C15 UNK     0      -1.804   3.328   0.914  0.00  0.00    +0.000 A 
ATOM      8  C16 UNK     0       0.328   4.035  -0.010  0.00  0.00    +0.000 A 
ATOM      9  C17 UNK     0      -0.888   4.352   0.625  0.00  0.00    +0.000 A 
ENDROOT
BRANCH   4  10
ATOM     10  C5  UNK     0      -2.098  -1.474   0.264  0.00  0.00    +0.000 C 
ATOM     11  C10 UNK     0      -1.419  -2.341   1.327  0.00  0.00    +0.000 C 
ATOM     12  C11 UNK     0      -2.043  -2.132  -1.119  0.00  0.00    +0.000 C 
ENDBRANCH   4  10
BRANCH   3  13
ATOM     13  C9  UNK     0       0.775  -0.398  -0.888  0.00  0.00    +0.000 C 
ATOM     14  O1  UNK     0       0.830  -0.423  -2.147  0.00  0.00    +0.000 OA
BRANCH  13  15
ATOM     15  C8  UNK     0       1.867  -1.039  -0.068  0.00  0.00    +0.000 C 
ATOM     16  C14 UNK     0       2.209  -2.436  -0.603  0.00  0.00    +0.000 C 
ATOM     17  C13 UNK     0       3.113  -0.149  -0.051  0.00  0.00    +0.000 C 
ENDBRANCH  13  15
ENDBRANCH   3  13
TORSDOF 3
