REMARK  Name = C:\Users\Maximilian\Desktop\Conformers\converted_pdb\conformers_pdb\Ibudilast_conf_3.pdb
REMARK  7 active torsions:
REMARK  status: ('A' for Active; 'I' for Inactive)
REMARK    1  A    between atoms: C4_3  and  C9_10
REMARK    2  A    between atoms: C6_4  and  C5_15
REMARK    3  A    between atoms: C9_10  and  C8_12
REMARK    4  A    between atoms: C8_12  and  C14_13
REMARK    5  A    between atoms: C8_12  and  C13_14
REMARK    6  A    between atoms: C5_15  and  C10_16
REMARK    7  A    between atoms: C5_15  and  C11_17
REMARK                            x       y       z     vdW  Elec       q    Type
REMARK                         _______ _______ _______ _____ _____    ______ ____
ROOT
ATOM      1  N2  UNK     0      -1.816   1.852   0.105  0.00  0.00    +0.000 N 
ATOM      2  N3  UNK     0      -2.417   0.705   0.371  0.00  0.00    +0.000 NA
ATOM      3  C4  UNK     0      -0.192   0.366   0.331  0.00  0.00    +0.000 A 
ATOM      4  C6  UNK     0      -1.447  -0.228   0.527  0.00  0.00    +0.000 A 
ATOM      5  C7  UNK     0      -0.484   1.690   0.082  0.00  0.00    +0.000 A 
ATOM      6  C12 UNK     0       0.370   2.770  -0.149  0.00  0.00    +0.000 A 
ATOM      7  C15 UNK     0      -2.424   3.047  -0.105  0.00  0.00    +0.000 A 
ATOM      8  C16 UNK     0      -0.218   4.025  -0.372  0.00  0.00    +0.000 A 
ATOM      9  C17 UNK     0      -1.618   4.168  -0.353  0.00  0.00    +0.000 A 
ENDROOT
BRANCH   4  10
ATOM     10  C5  UNK     0      -1.766  -1.664   0.868  0.00  0.00    +0.000 C 
ATOM     11  C10 UNK     0      -0.977  -2.161   2.084  0.00  0.00    +0.000 C 
ATOM     12  C11 UNK     0      -1.572  -2.582  -0.341  0.00  0.00    +0.000 C 
ENDBRANCH   4  10
BRANCH   3  13
ATOM     13  C9  UNK     0       1.147  -0.232   0.420  0.00  0.00    +0.000 C 
ATOM     14  O1  UNK     0       1.797  -0.116   1.494  0.00  0.00    +0.000 OA
BRANCH  13  15
ATOM     15  C8  UNK     0       1.788  -0.866  -0.790  0.00  0.00    +0.000 C 
ATOM     16  C14 UNK     0       2.752   0.118  -1.457  0.00  0.00    +0.000 C 
ATOM     17  C13 UNK     0       2.516  -2.162  -0.412  0.00  0.00    +0.000 C 
ENDBRANCH  13  15
ENDBRANCH   3  13
TORSDOF 3
