REMARK  Name = C:\Users\Maximilian\Desktop\Conformers\converted_pdb\conformers_pdb\Ibudilast_conf_9.pdb
REMARK  7 active torsions:
REMARK  status: ('A' for Active; 'I' for Inactive)
REMARK    1  A    between atoms: C4_3  and  C9_10
REMARK    2  A    between atoms: C6_4  and  C5_15
REMARK    3  A    between atoms: C9_10  and  C8_12
REMARK    4  A    between atoms: C8_12  and  C14_13
REMARK    5  A    between atoms: C8_12  and  C13_14
REMARK    6  A    between atoms: C5_15  and  C10_16
REMARK    7  A    between atoms: C5_15  and  C11_17
REMARK                            x       y       z     vdW  Elec       q    Type
REMARK                         _______ _______ _______ _____ _____    ______ ____
ROOT
ATOM      1  N2  UNK     0      -2.058   1.304  -0.358  0.00  0.00    +0.000 N 
ATOM      2  N3  UNK     0      -2.214  -0.004  -0.250  0.00  0.00    +0.000 NA
ATOM      3  C4  UNK     0      -0.010   0.460  -0.353  0.00  0.00    +0.000 A 
ATOM      4  C6  UNK     0      -0.974  -0.551  -0.248  0.00  0.00    +0.000 A 
ATOM      5  C7  UNK     0      -0.755   1.620  -0.430  0.00  0.00    +0.000 A 
ATOM      6  C12 UNK     0      -0.342   2.949  -0.536  0.00  0.00    +0.000 A 
ATOM      7  C15 UNK     0      -3.051   2.228  -0.395  0.00  0.00    +0.000 A 
ATOM      8  C16 UNK     0      -1.337   3.938  -0.578  0.00  0.00    +0.000 A 
ATOM      9  C17 UNK     0      -2.697   3.580  -0.509  0.00  0.00    +0.000 A 
ENDROOT
BRANCH   4  10
ATOM     10  C5  UNK     0      -0.735  -2.039  -0.214  0.00  0.00    +0.000 C 
ATOM     11  C10 UNK     0      -1.497  -2.728  -1.351  0.00  0.00    +0.000 C 
ATOM     12  C11 UNK     0      -1.153  -2.611   1.144  0.00  0.00    +0.000 C 
ENDBRANCH   4  10
BRANCH   3  13
ATOM     13  C9  UNK     0       1.461   0.351  -0.394  0.00  0.00    +0.000 C 
ATOM     14  O1  UNK     0       2.097   1.003  -1.267  0.00  0.00    +0.000 OA
BRANCH  13  15
ATOM     15  C8  UNK     0       2.221  -0.421   0.656  0.00  0.00    +0.000 C 
ATOM     16  C14 UNK     0       3.239  -1.368   0.011  0.00  0.00    +0.000 C 
ATOM     17  C13 UNK     0       2.916   0.549   1.617  0.00  0.00    +0.000 C 
ENDBRANCH  13  15
ENDBRANCH   3  13
TORSDOF 3
