REMARK  3 active torsions:
REMARK  status: ('A' for Active; 'I' for Inactive)
REMARK    1  A    between atoms: C4_4  and  C9_9 
REMARK    2  A    between atoms: C5_5  and  C6_6 
REMARK    3  A    between atoms: C8_8  and  C9_9 
ROOT
HETATM    1  N2          0       3.524  -2.463   0.015  1.00  0.00    -0.244 N 
HETATM    2  N3          0       4.808  -2.839   0.084  1.00  0.00    -0.171 NA
HETATM    3  C4          0       4.629  -0.579  -0.047  1.00  0.00     0.066 A 
HETATM    4  C6          0       5.527  -1.784   0.056  1.00  0.00     0.074 A 
HETATM    5  C7          0       3.399  -1.113  -0.066  1.00  0.00     0.073 A 
HETATM    6  C12         0       2.087  -0.497  -0.166  1.00  0.00     0.032 A 
HETATM    7  C15         0       2.425  -3.312   0.016  1.00  0.00     0.119 A 
HETATM    8  C16         0       1.024  -1.305  -0.165  1.00  0.00     0.004 A 
HETATM    9  C17         0       1.203  -2.779  -0.070  1.00  0.00     0.019 A 
ENDROOT
BRANCH   3  10
HETATM   10  C9          0       5.061   0.902  -0.111  1.00  0.00     0.167 C 
HETATM   11  O1          0       6.266   1.171  -0.149  1.00  0.00    -0.292 OA
BRANCH  10  12
HETATM   12  C8          0       4.103   2.089  -0.129  1.00  0.00     0.052 C 
HETATM   13  C14         0       3.466   2.263   1.273  1.00  0.00     0.018 C 
HETATM   14  C13         0       4.868   3.381  -0.470  1.00  0.00     0.018 C 
ENDBRANCH  10  12
ENDBRANCH   3  10
BRANCH   4  15
HETATM   15  C5          0       7.051  -1.854   0.098  1.00  0.00     0.032 C 
HETATM   16  C10         0       7.487  -3.319   0.297  1.00  0.00     0.016 C 
HETATM   17  C11         0       7.646  -0.988   1.230  1.00  0.00     0.016 C 
ENDBRANCH   4  15
TORSDOF 3
