REMARK  Name = C:\Users\Maximilian\Desktop\Conformers\converted_pdb\conformers_pdb\Ibudilast_conf_2.pdb
REMARK  7 active torsions:
REMARK  status: ('A' for Active; 'I' for Inactive)
REMARK    1  A    between atoms: C4_3  and  C9_10
REMARK    2  A    between atoms: C6_4  and  C5_15
REMARK    3  A    between atoms: C9_10  and  C8_12
REMARK    4  A    between atoms: C8_12  and  C14_13
REMARK    5  A    between atoms: C8_12  and  C13_14
REMARK    6  A    between atoms: C5_15  and  C10_16
REMARK    7  A    between atoms: C5_15  and  C11_17
REMARK                            x       y       z     vdW  Elec       q    Type
REMARK                         _______ _______ _______ _____ _____    ______ ____
ROOT
ATOM      1  N2  UNK     0      -0.880   2.128   0.082  0.00  0.00    +0.000 N 
ATOM      2  N3  UNK     0      -1.899   1.299   0.220  0.00  0.00    +0.000 NA
ATOM      3  C4  UNK     0      -0.037   0.097  -0.190  0.00  0.00    +0.000 A 
ATOM      4  C6  UNK     0      -1.411   0.045   0.065  0.00  0.00    +0.000 A 
ATOM      5  C7  UNK     0       0.253   1.450  -0.169  0.00  0.00    +0.000 A 
ATOM      6  C12 UNK     0       1.451   2.126  -0.415  0.00  0.00    +0.000 A 
ATOM      7  C15 UNK     0      -0.940   3.482   0.147  0.00  0.00    +0.000 A 
ATOM      8  C16 UNK     0       1.434   3.528  -0.353  0.00  0.00    +0.000 A 
ATOM      9  C17 UNK     0       0.238   4.212  -0.068  0.00  0.00    +0.000 A 
ENDROOT
BRANCH   4  10
ATOM     10  C5  UNK     0      -2.268  -1.194   0.122  0.00  0.00    +0.000 C 
ATOM     11  C10 UNK     0      -2.991  -1.393  -1.212  0.00  0.00    +0.000 C 
ATOM     12  C11 UNK     0      -3.271  -1.112   1.278  0.00  0.00    +0.000 C 
ENDBRANCH   4  10
BRANCH   3  13
ATOM     13  C9  UNK     0       0.870  -1.038  -0.456  0.00  0.00    +0.000 C 
ATOM     14  O1  UNK     0       0.485  -1.964  -1.220  0.00  0.00    +0.000 OA
BRANCH  13  15
ATOM     15  C8  UNK     0       2.210  -1.149   0.227  0.00  0.00    +0.000 C 
ATOM     16  C14 UNK     0       2.201  -2.323   1.212  0.00  0.00    +0.000 C 
ATOM     17  C13 UNK     0       3.332  -1.314  -0.804  0.00  0.00    +0.000 C 
ENDBRANCH  13  15
ENDBRANCH   3  13
TORSDOF 3
