REMARK  Name = C:\Users\Maximilian\Desktop\Conformers\converted_pdb\conformers_pdb\Ibudilast_conf_7.pdb
REMARK  7 active torsions:
REMARK  status: ('A' for Active; 'I' for Inactive)
REMARK    1  A    between atoms: C4_3  and  C9_10
REMARK    2  A    between atoms: C6_4  and  C5_15
REMARK    3  A    between atoms: C9_10  and  C8_12
REMARK    4  A    between atoms: C8_12  and  C14_13
REMARK    5  A    between atoms: C8_12  and  C13_14
REMARK    6  A    between atoms: C5_15  and  C10_16
REMARK    7  A    between atoms: C5_15  and  C11_17
REMARK                            x       y       z     vdW  Elec       q    Type
REMARK                         _______ _______ _______ _____ _____    ______ ____
ROOT
ATOM      1  N2  UNK     0      -2.057   1.060  -0.172  0.00  0.00    +0.000 N 
ATOM      2  N3  UNK     0      -2.312  -0.233  -0.083  0.00  0.00    +0.000 NA
ATOM      3  C4  UNK     0      -0.138   0.110   0.401  0.00  0.00    +0.000 A 
ATOM      4  C6  UNK     0      -1.159  -0.840   0.287  0.00  0.00    +0.000 A 
ATOM      5  C7  UNK     0      -0.767   1.308   0.111  0.00  0.00    +0.000 A 
ATOM      6  C12 UNK     0      -0.273   2.615   0.115  0.00  0.00    +0.000 A 
ATOM      7  C15 UNK     0      -2.949   2.030  -0.495  0.00  0.00    +0.000 A 
ATOM      8  C16 UNK     0      -1.164   3.649  -0.214  0.00  0.00    +0.000 A 
ATOM      9  C17 UNK     0      -2.506   3.359  -0.524  0.00  0.00    +0.000 A 
ENDROOT
BRANCH   4  10
ATOM     10  C5  UNK     0      -1.007  -2.339   0.375  0.00  0.00    +0.000 C 
ATOM     11  C10 UNK     0      -0.760  -2.922  -1.019  0.00  0.00    +0.000 C 
ATOM     12  C11 UNK     0      -2.240  -2.978   1.022  0.00  0.00    +0.000 C 
ENDBRANCH   4  10
BRANCH   3  13
ATOM     13  C9  UNK     0       1.282  -0.126   0.727  0.00  0.00    +0.000 C 
ATOM     14  O1  UNK     0       1.575  -0.893   1.684  0.00  0.00    +0.000 OA
BRANCH  13  15
ATOM     15  C8  UNK     0       2.388   0.478  -0.105  0.00  0.00    +0.000 C 
ATOM     16  C14 UNK     0       3.371   1.253   0.779  0.00  0.00    +0.000 C 
ATOM     17  C13 UNK     0       3.113  -0.619  -0.890  0.00  0.00    +0.000 C 
ENDBRANCH  13  15
ENDBRANCH   3  13
TORSDOF 3
