REMARK  Name = C:\Users\Maximilian\Desktop\Conformers\converted_pdb\conformers_pdb\Ibudilast_conf_4.pdb
REMARK  7 active torsions:
REMARK  status: ('A' for Active; 'I' for Inactive)
REMARK    1  A    between atoms: C4_3  and  C9_10
REMARK    2  A    between atoms: C6_4  and  C5_15
REMARK    3  A    between atoms: C9_10  and  C8_12
REMARK    4  A    between atoms: C8_12  and  C14_13
REMARK    5  A    between atoms: C8_12  and  C13_14
REMARK    6  A    between atoms: C5_15  and  C10_16
REMARK    7  A    between atoms: C5_15  and  C11_17
REMARK                            x       y       z     vdW  Elec       q    Type
REMARK                         _______ _______ _______ _____ _____    ______ ____
ROOT
ATOM      1  N2  UNK     0      -1.868   1.111   0.012  0.00  0.00    +0.000 N 
ATOM      2  N3  UNK     0      -2.050  -0.176   0.251  0.00  0.00    +0.000 NA
ATOM      3  C4  UNK     0       0.036   0.129  -0.538  0.00  0.00    +0.000 A 
ATOM      4  C6  UNK     0      -0.897  -0.804  -0.084  0.00  0.00    +0.000 A 
ATOM      5  C7  UNK     0      -0.635   1.332  -0.474  0.00  0.00    +0.000 A 
ATOM      6  C12 UNK     0      -0.231   2.612  -0.857  0.00  0.00    +0.000 A 
ATOM      7  C15 UNK     0      -2.785   2.096   0.188  0.00  0.00    +0.000 A 
ATOM      8  C16 UNK     0      -1.148   3.661  -0.688  0.00  0.00    +0.000 A 
ATOM      9  C17 UNK     0      -2.429   3.407  -0.161  0.00  0.00    +0.000 A 
ENDROOT
BRANCH   4  10
ATOM     10  C5  UNK     0      -0.715  -2.298  -0.020  0.00  0.00    +0.000 C 
ATOM     11  C10 UNK     0      -1.689  -2.991  -0.977  0.00  0.00    +0.000 C 
ATOM     12  C11 UNK     0      -0.909  -2.799   1.414  0.00  0.00    +0.000 C 
ENDBRANCH   4  10
BRANCH   3  13
ATOM     13  C9  UNK     0       1.396  -0.126  -1.041  0.00  0.00    +0.000 C 
ATOM     14  O1  UNK     0       1.544  -0.447  -2.251  0.00  0.00    +0.000 OA
BRANCH  13  15
ATOM     15  C8  UNK     0       2.613  -0.004  -0.151  0.00  0.00    +0.000 C 
ATOM     16  C14 UNK     0       2.910   1.461   0.179  0.00  0.00    +0.000 C 
ATOM     17  C13 UNK     0       2.459  -0.828   1.132  0.00  0.00    +0.000 C 
ENDBRANCH  13  15
ENDBRANCH   3  13
TORSDOF 3
