REMARK  Name = C:\Users\Maximilian\Desktop\Conformers\converted_pdb\conformers_pdb\Ibudilast_conf_8.pdb
REMARK  7 active torsions:
REMARK  status: ('A' for Active; 'I' for Inactive)
REMARK    1  A    between atoms: C4_3  and  C9_10
REMARK    2  A    between atoms: C6_4  and  C5_15
REMARK    3  A    between atoms: C9_10  and  C8_12
REMARK    4  A    between atoms: C8_12  and  C14_13
REMARK    5  A    between atoms: C8_12  and  C13_14
REMARK    6  A    between atoms: C5_15  and  C10_16
REMARK    7  A    between atoms: C5_15  and  C11_17
REMARK                            x       y       z     vdW  Elec       q    Type
REMARK                         _______ _______ _______ _____ _____    ______ ____
ROOT
ATOM      1  N2  UNK     0       1.650  -1.367   0.361  0.00  0.00    +0.000 N 
ATOM      2  N3  UNK     0       0.475  -1.962   0.473  0.00  0.00    +0.000 NA
ATOM      3  C4  UNK     0       0.187   0.038  -0.520  0.00  0.00    +0.000 A 
ATOM      4  C6  UNK     0      -0.442  -1.122  -0.067  0.00  0.00    +0.000 A 
ATOM      5  C7  UNK     0       1.522  -0.174  -0.241  0.00  0.00    +0.000 A 
ATOM      6  C12 UNK     0       2.638   0.615  -0.522  0.00  0.00    +0.000 A 
ATOM      7  C15 UNK     0       2.845  -1.876   0.756  0.00  0.00    +0.000 A 
ATOM      8  C16 UNK     0       3.893   0.128  -0.126  0.00  0.00    +0.000 A 
ATOM      9  C17 UNK     0       4.002  -1.119   0.518  0.00  0.00    +0.000 A 
ENDROOT
BRANCH   4  10
ATOM     10  C5  UNK     0      -1.905  -1.459  -0.195  0.00  0.00    +0.000 C 
ATOM     11  C10 UNK     0      -2.519  -1.705   1.186  0.00  0.00    +0.000 C 
ATOM     12  C11 UNK     0      -2.089  -2.679  -1.100  0.00  0.00    +0.000 C 
ENDBRANCH   4  10
BRANCH   3  13
ATOM     13  C9  UNK     0      -0.424   1.187  -1.209  0.00  0.00    +0.000 C 
ATOM     14  O1  UNK     0      -0.595   1.125  -2.455  0.00  0.00    +0.000 OA
BRANCH  13  15
ATOM     15  C8  UNK     0      -0.843   2.434  -0.463  0.00  0.00    +0.000 C 
ATOM     16  C14 UNK     0      -1.750   2.103   0.728  0.00  0.00    +0.000 C 
ATOM     17  C13 UNK     0       0.377   3.239  -0.006  0.00  0.00    +0.000 C 
ENDBRANCH  13  15
ENDBRANCH   3  13
TORSDOF 3
