REMARK  Name = C:\Users\Maximilian\Desktop\Conformers\converted_pdb\conformers_pdb\Isoliquiritigenin_conf_4.pdb
REMARK  6 active torsions:
REMARK  status: ('A' for Active; 'I' for Inactive)
REMARK    1  A    between atoms: C8_2  and  C11_3
REMARK    2  A    between atoms: C8_2  and  C5_13
REMARK    3  A    between atoms: C10_4  and  C6_5
REMARK    4  A    between atoms: C19_8  and  O4_11
REMARK    5  A    between atoms: C7_14  and  O1_19
REMARK    6  A    between atoms: C14_16  and  O2_21
REMARK                            x       y       z     vdW  Elec       q    Type
REMARK                         _______ _______ _______ _____ _____    ______ ____
ROOT
ATOM      1  O3  UNK     0      -0.323  -0.829  -0.923  0.00  0.00    +0.000 OA
ATOM      2  C8  UNK     0       0.479   0.143  -0.860  0.00  0.00    +0.000 C 
ENDROOT
BRANCH   2   3
ATOM      3  C5  UNK     0       1.931  -0.134  -0.748  0.00  0.00    +0.000 A 
ATOM      4  C7  UNK     0       2.397  -1.184   0.072  0.00  0.00    +0.000 A 
ATOM      5  C12 UNK     0       3.772  -1.447   0.160  0.00  0.00    +0.000 A 
ATOM      6  C14 UNK     0       4.689  -0.678  -0.560  0.00  0.00    +0.000 A 
ATOM      7  C13 UNK     0       4.231   0.361  -1.378  0.00  0.00    +0.000 A 
ATOM      8  C9  UNK     0       2.864   0.631  -1.474  0.00  0.00    +0.000 A 
BRANCH   4   9
ATOM      9  O1  UNK     0       1.497  -1.953   0.810  0.00  0.00    +0.000 OA
ATOM     10  H29 UNK     0       1.809  -2.708   1.410  0.00  0.00    +0.000 HD
ENDBRANCH   4   9
BRANCH   6  11
ATOM     11  O2  UNK     0       6.050  -0.954  -0.458  0.00  0.00    +0.000 OA
ATOM     12  H30 UNK     0       6.740  -0.415  -0.968  0.00  0.00    +0.000 HD
ENDBRANCH   6  11
ENDBRANCH   2   3
BRANCH   2  13
ATOM     13  C11 UNK     0      -0.032   1.534  -0.932  0.00  0.00    +0.000 C 
ATOM     14  C10 UNK     0      -1.294   1.911  -0.669  0.00  0.00    +0.000 C 
BRANCH  14  15
ATOM     15  C6  UNK     0      -2.342   1.047  -0.085  0.00  0.00    +0.000 A 
ATOM     16  C16 UNK     0      -2.097   0.285   1.072  0.00  0.00    +0.000 A 
ATOM     17  C18 UNK     0      -3.117  -0.488   1.635  0.00  0.00    +0.000 A 
ATOM     18  C19 UNK     0      -4.394  -0.490   1.065  0.00  0.00    +0.000 A 
ATOM     19  C17 UNK     0      -4.651   0.291  -0.070  0.00  0.00    +0.000 A 
ATOM     20  C15 UNK     0      -3.632   1.065  -0.635  0.00  0.00    +0.000 A 
BRANCH  18  21
ATOM     21  O4  UNK     0      -5.401  -1.266   1.636  0.00  0.00    +0.000 OA
ATOM     22  H31 UNK     0      -6.337  -1.288   1.248  0.00  0.00    +0.000 HD
ENDBRANCH  18  21
ENDBRANCH  14  15
ENDBRANCH   2  13
TORSDOF 6
