REMARK  Name = C:\Users\Maximilian\Desktop\Conformers\converted_pdb\conformers_pdb\Isoliquiritigenin_conf_2.pdb
REMARK  6 active torsions:
REMARK  status: ('A' for Active; 'I' for Inactive)
REMARK    1  A    between atoms: C8_2  and  C11_3
REMARK    2  A    between atoms: C8_2  and  C5_13
REMARK    3  A    between atoms: C10_4  and  C6_5
REMARK    4  A    between atoms: C19_8  and  O4_11
REMARK    5  A    between atoms: C7_14  and  O1_19
REMARK    6  A    between atoms: C14_16  and  O2_21
REMARK                            x       y       z     vdW  Elec       q    Type
REMARK                         _______ _______ _______ _____ _____    ______ ____
ROOT
ATOM      1  O3  UNK     0      -1.199  -1.447   1.996  0.00  0.00    +0.000 OA
ATOM      2  C8  UNK     0      -1.160  -0.715   0.969  0.00  0.00    +0.000 C 
ENDROOT
BRANCH   2   3
ATOM      3  C5  UNK     0      -2.432  -0.259   0.352  0.00  0.00    +0.000 A 
ATOM      4  C7  UNK     0      -3.589  -1.068   0.392  0.00  0.00    +0.000 A 
ATOM      5  C12 UNK     0      -4.785  -0.610  -0.181  0.00  0.00    +0.000 A 
ATOM      6  C14 UNK     0      -4.843   0.643  -0.795  0.00  0.00    +0.000 A 
ATOM      7  C13 UNK     0      -3.701   1.450  -0.835  0.00  0.00    +0.000 A 
ATOM      8  C9  UNK     0      -2.506   1.005  -0.265  0.00  0.00    +0.000 A 
BRANCH   4   9
ATOM      9  O1  UNK     0      -3.549  -2.330   0.986  0.00  0.00    +0.000 OA
ATOM     10  H29 UNK     0      -4.366  -2.928   1.021  0.00  0.00    +0.000 HD
ENDBRANCH   4   9
BRANCH   6  11
ATOM     11  O2  UNK     0      -6.040   1.078  -1.360  0.00  0.00    +0.000 OA
ATOM     12  H30 UNK     0      -6.115   1.981  -1.812  0.00  0.00    +0.000 HD
ENDBRANCH   6  11
ENDBRANCH   2   3
BRANCH   2  13
ATOM     13  C11 UNK     0       0.148  -0.332   0.390  0.00  0.00    +0.000 C 
ATOM     14  C10 UNK     0       1.309  -0.635   0.988  0.00  0.00    +0.000 C 
BRANCH  14  15
ATOM     15  C6  UNK     0       2.638  -0.284   0.430  0.00  0.00    +0.000 A 
ATOM     16  C16 UNK     0       2.821   0.770  -0.489  0.00  0.00    +0.000 A 
ATOM     17  C18 UNK     0       4.097   1.070  -0.977  0.00  0.00    +0.000 A 
ATOM     18  C19 UNK     0       5.207   0.331  -0.549  0.00  0.00    +0.000 A 
ATOM     19  C17 UNK     0       5.036  -0.704   0.373  0.00  0.00    +0.000 A 
ATOM     20  C15 UNK     0       3.763  -1.007   0.864  0.00  0.00    +0.000 A 
BRANCH  18  21
ATOM     21  O4  UNK     0       6.482   0.621  -1.030  0.00  0.00    +0.000 OA
ATOM     22  H31 UNK     0       6.638   1.367  -1.698  0.00  0.00    +0.000 HD
ENDBRANCH  18  21
ENDBRANCH  14  15
ENDBRANCH   2  13
TORSDOF 6
