REMARK  Name = C:\Users\Maximilian\Desktop\Conformers\converted_pdb\conformers_pdb\Isoliquiritigenin_conf_3.pdb
REMARK  6 active torsions:
REMARK  status: ('A' for Active; 'I' for Inactive)
REMARK    1  A    between atoms: C8_2  and  C11_3
REMARK    2  A    between atoms: C8_2  and  C5_13
REMARK    3  A    between atoms: C10_4  and  C6_5
REMARK    4  A    between atoms: C19_8  and  O4_11
REMARK    5  A    between atoms: C7_14  and  O1_19
REMARK    6  A    between atoms: C14_16  and  O2_21
REMARK                            x       y       z     vdW  Elec       q    Type
REMARK                         _______ _______ _______ _____ _____    ______ ____
ROOT
ATOM      1  O3  UNK     0       0.155  -0.883  -0.596  0.00  0.00    +0.000 OA
ATOM      2  C8  UNK     0      -0.585  -0.226   0.185  0.00  0.00    +0.000 C 
ENDROOT
BRANCH   2   3
ATOM      3  C5  UNK     0      -1.918   0.196  -0.292  0.00  0.00    +0.000 A 
ATOM      4  C7  UNK     0      -3.087  -0.034   0.465  0.00  0.00    +0.000 A 
ATOM      5  C12 UNK     0      -4.330   0.397  -0.024  0.00  0.00    +0.000 A 
ATOM      6  C14 UNK     0      -4.421   1.033  -1.268  0.00  0.00    +0.000 A 
ATOM      7  C13 UNK     0      -3.267   1.236  -2.029  0.00  0.00    +0.000 A 
ATOM      8  C9  UNK     0      -2.025   0.816  -1.548  0.00  0.00    +0.000 A 
BRANCH   4   9
ATOM      9  O1  UNK     0      -3.021  -0.712   1.682  0.00  0.00    +0.000 OA
ATOM     10  H29 UNK     0      -3.850  -0.893   2.236  0.00  0.00    +0.000 HD
ENDBRANCH   4   9
BRANCH   6  11
ATOM     11  O2  UNK     0      -5.653   1.461  -1.759  0.00  0.00    +0.000 OA
ATOM     12  H30 UNK     0      -6.508   1.328  -1.233  0.00  0.00    +0.000 HD
ENDBRANCH   6  11
ENDBRANCH   2   3
BRANCH   2  13
ATOM     13  C11 UNK     0      -0.130   0.109   1.558  0.00  0.00    +0.000 C 
ATOM     14  C10 UNK     0       1.128  -0.003   2.015  0.00  0.00    +0.000 C 
BRANCH  14  15
ATOM     15  C6  UNK     0       2.315  -0.311   1.193  0.00  0.00    +0.000 A 
ATOM     16  C16 UNK     0       3.210  -1.302   1.621  0.00  0.00    +0.000 A 
ATOM     17  C18 UNK     0       4.367  -1.573   0.883  0.00  0.00    +0.000 A 
ATOM     18  C19 UNK     0       4.651  -0.842  -0.275  0.00  0.00    +0.000 A 
ATOM     19  C17 UNK     0       3.775   0.170  -0.690  0.00  0.00    +0.000 A 
ATOM     20  C15 UNK     0       2.618   0.443   0.046  0.00  0.00    +0.000 A 
BRANCH  18  21
ATOM     21  O4  UNK     0       5.806  -1.124  -1.001  0.00  0.00    +0.000 OA
ATOM     22  H31 UNK     0       6.041  -0.612  -1.843  0.00  0.00    +0.000 HD
ENDBRANCH  18  21
ENDBRANCH  14  15
ENDBRANCH   2  13
TORSDOF 6
