REMARK  Name = C:\Users\Maximilian\Desktop\Conformers\converted_pdb\conformers_pdb\Isoliquiritigenin_conf_1.pdb
REMARK  6 active torsions:
REMARK  status: ('A' for Active; 'I' for Inactive)
REMARK    1  A    between atoms: C8_2  and  C11_3
REMARK    2  A    between atoms: C8_2  and  C5_13
REMARK    3  A    between atoms: C10_4  and  C6_5
REMARK    4  A    between atoms: C19_8  and  O4_11
REMARK    5  A    between atoms: C7_14  and  O1_19
REMARK    6  A    between atoms: C14_16  and  O2_21
REMARK                            x       y       z     vdW  Elec       q    Type
REMARK                         _______ _______ _______ _____ _____    ______ ____
ROOT
ATOM      1  O3  UNK     0      -1.349  -1.980  -1.528  0.00  0.00    +0.000 OA
ATOM      2  C8  UNK     0      -1.259  -1.073  -0.656  0.00  0.00    +0.000 C 
ENDROOT
BRANCH   2   3
ATOM      3  C5  UNK     0      -2.489  -0.603   0.023  0.00  0.00    +0.000 A 
ATOM      4  C7  UNK     0      -2.695   0.759   0.335  0.00  0.00    +0.000 A 
ATOM      5  C12 UNK     0      -3.870   1.156   0.991  0.00  0.00    +0.000 A 
ATOM      6  C14 UNK     0      -4.851   0.217   1.319  0.00  0.00    +0.000 A 
ATOM      7  C13 UNK     0      -4.661  -1.130   0.989  0.00  0.00    +0.000 A 
ATOM      8  C9  UNK     0      -3.492  -1.536   0.341  0.00  0.00    +0.000 A 
BRANCH   4   9
ATOM      9  O1  UNK     0      -1.751   1.721  -0.027  0.00  0.00    +0.000 OA
ATOM     10  H29 UNK     0      -1.885   2.703   0.182  0.00  0.00    +0.000 HD
ENDBRANCH   4   9
BRANCH   6  11
ATOM     11  O2  UNK     0      -6.011   0.632   1.969  0.00  0.00    +0.000 OA
ATOM     12  H30 UNK     0      -6.742  -0.024   2.219  0.00  0.00    +0.000 HD
ENDBRANCH   6  11
ENDBRANCH   2   3
BRANCH   2  13
ATOM     13  C11 UNK     0       0.069  -0.532  -0.289  0.00  0.00    +0.000 C 
ATOM     14  C10 UNK     0       1.179  -0.842  -0.973  0.00  0.00    +0.000 C 
BRANCH  14  15
ATOM     15  C6  UNK     0       2.528  -0.332  -0.626  0.00  0.00    +0.000 A 
ATOM     16  C16 UNK     0       3.654  -1.035  -1.088  0.00  0.00    +0.000 A 
ATOM     17  C18 UNK     0       4.944  -0.585  -0.794  0.00  0.00    +0.000 A 
ATOM     18  C19 UNK     0       5.130   0.578  -0.043  0.00  0.00    +0.000 A 
ATOM     19  C17 UNK     0       4.016   1.297   0.410  0.00  0.00    +0.000 A 
ATOM     20  C15 UNK     0       2.723   0.850   0.118  0.00  0.00    +0.000 A 
BRANCH  18  21
ATOM     21  O4  UNK     0       6.421   1.014   0.244  0.00  0.00    +0.000 OA
ATOM     22  H31 UNK     0       6.589   1.855   0.785  0.00  0.00    +0.000 HD
ENDBRANCH  18  21
ENDBRANCH  14  15
ENDBRANCH   2  13
TORSDOF 6
