REMARK  Name = C:\Users\Maximilian\Desktop\Conformers\converted_pdb\conformers_pdb\Kaempferol_conf_1.pdb
REMARK  5 active torsions:
REMARK  status: ('A' for Active; 'I' for Inactive)
REMARK    1  A    between atoms: C9_5  and  C12_12
REMARK    2  A    between atoms: C11_7  and  O2_20
REMARK    3  A    between atoms: C13_8  and  O3_24
REMARK    4  A    between atoms: C15_10  and  O5_22
REMARK    5  A    between atoms: C21_15  and  O6_18
REMARK                            x       y       z     vdW  Elec       q    Type
REMARK                         _______ _______ _______ _____ _____    ______ ____
ROOT
ATOM      1  O1  UNK     0      -0.229   0.125   0.753  0.00  0.00    +0.000 OA
ATOM      2  O4  UNK     0      -2.414  -0.646  -2.511  0.00  0.00    +0.000 OA
ATOM      3  C7  UNK     0      -2.390  -0.123  -0.237  0.00  0.00    +0.000 A 
ATOM      4  C8  UNK     0      -1.549   0.074   0.889  0.00  0.00    +0.000 A 
ATOM      5  C9  UNK     0       0.393  -0.018  -0.412  0.00  0.00    +0.000 A 
ATOM      6  C10 UNK     0      -1.754  -0.349  -1.481  0.00  0.00    +0.000 A 
ATOM      7  C11 UNK     0      -0.354  -0.289  -1.571  0.00  0.00    +0.000 A 
ATOM      8  C13 UNK     0      -3.804  -0.120  -0.038  0.00  0.00    +0.000 A 
ATOM      9  C14 UNK     0      -2.094   0.213   2.168  0.00  0.00    +0.000 A 
ATOM     10  C15 UNK     0      -3.475   0.154   2.358  0.00  0.00    +0.000 A 
ATOM     11  C16 UNK     0      -4.318  -0.014   1.260  0.00  0.00    +0.000 A 
ENDROOT
BRANCH   5  12
ATOM     12  C12 UNK     0       1.870   0.086  -0.432  0.00  0.00    +0.000 A 
ATOM     13  C18 UNK     0       2.618  -0.479   0.614  0.00  0.00    +0.000 A 
ATOM     14  C20 UNK     0       4.012  -0.372   0.626  0.00  0.00    +0.000 A 
ATOM     15  C21 UNK     0       4.674   0.314  -0.400  0.00  0.00    +0.000 A 
ATOM     16  C19 UNK     0       3.935   0.897  -1.434  0.00  0.00    +0.000 A 
ATOM     17  C17 UNK     0       2.541   0.791  -1.449  0.00  0.00    +0.000 A 
BRANCH  15  18
ATOM     18  O6  UNK     0       6.063   0.426  -0.399  0.00  0.00    +0.000 OA
ATOM     19  H31 UNK     0       6.626   0.016   0.336  0.00  0.00    +0.000 HD
ENDBRANCH  15  18
ENDBRANCH   5  12
BRANCH   7  20
ATOM     20  O2  UNK     0       0.295  -0.531  -2.785  0.00  0.00    +0.000 OA
ATOM     21  H28 UNK     0      -0.208  -0.737  -3.640  0.00  0.00    +0.000 HD
ENDBRANCH   7  20
BRANCH  10  22
ATOM     22  O5  UNK     0      -4.022   0.272   3.634  0.00  0.00    +0.000 OA
ATOM     23  H30 UNK     0      -3.437   0.398   4.451  0.00  0.00    +0.000 HD
ENDBRANCH  10  22
BRANCH   8  24
ATOM     24  O3  UNK     0      -4.738  -0.190  -1.075  0.00  0.00    +0.000 OA
ATOM     25  H29 UNK     0      -4.539   0.016  -2.043  0.00  0.00    +0.000 HD
ENDBRANCH   8  24
TORSDOF 5
