REMARK  Name = C:\Users\Maximilian\Desktop\Conformers\converted_pdb\conformers_pdb\Lenalidomide_conf_5.pdb
REMARK  2 active torsions:
REMARK  status: ('A' for Active; 'I' for Inactive)
REMARK    1  A    between atoms: N4_2  and  C7_11
REMARK    2  A    between atoms: C16_7  and  N6_20
REMARK                            x       y       z     vdW  Elec       q    Type
REMARK                         _______ _______ _______ _____ _____    ______ ____
ROOT
ATOM      1  O1  UNK     0      -0.093  -2.809   0.756  0.00  0.00    +0.000 OA
ATOM      2  N4  UNK     0      -0.353  -0.447   0.693  0.00  0.00    +0.000 N 
ATOM      3  C9  UNK     0       0.577   0.678   0.503  0.00  0.00    +0.000 C 
ATOM      4  C10 UNK     0       1.926   0.016   0.425  0.00  0.00    +0.000 A 
ATOM      5  C11 UNK     0       0.405  -1.655   0.673  0.00  0.00    +0.000 C 
ATOM      6  C13 UNK     0       1.804  -1.354   0.523  0.00  0.00    +0.000 A 
ATOM      7  C16 UNK     0       3.185   0.611   0.262  0.00  0.00    +0.000 A 
ATOM      8  C17 UNK     0       2.907  -2.203   0.465  0.00  0.00    +0.000 A 
ATOM      9  C18 UNK     0       4.317  -0.228   0.204  0.00  0.00    +0.000 A 
ATOM     10  C19 UNK     0       4.177  -1.627   0.305  0.00  0.00    +0.000 A 
ENDROOT
BRANCH   2  11
ATOM     11  C7  UNK     0      -1.815  -0.382   0.570  0.00  0.00    +0.000 C 
ATOM     12  C8  UNK     0      -2.215  -0.284  -0.914  0.00  0.00    +0.000 C 
ATOM     13  C12 UNK     0      -3.728  -0.118  -1.077  0.00  0.00    +0.000 C 
ATOM     14  C15 UNK     0      -4.209   1.074  -0.304  0.00  0.00    +0.000 C 
ATOM     15  N5  UNK     0      -3.542   1.470   0.900  0.00  0.00    +0.000 N 
ATOM     16  O3  UNK     0      -5.233   1.699  -0.688  0.00  0.00    +0.000 OA
ATOM     17  H27 UNK     0      -3.916   2.272   1.455  0.00  0.00    +0.000 HD
ATOM     18  C14 UNK     0      -2.380   0.772   1.363  0.00  0.00    +0.000 C 
ATOM     19  O2  UNK     0      -1.881   1.073   2.481  0.00  0.00    +0.000 OA
ENDBRANCH   2  11
BRANCH   7  20
ATOM     20  N6  UNK     0       3.327   2.030   0.154  0.00  0.00    +0.000 N 
ATOM     21  H31 UNK     0       4.270   2.462   0.032  0.00  0.00    +0.000 HD
ATOM     22  H32 UNK     0       2.496   2.661   0.194  0.00  0.00    +0.000 HD
ENDBRANCH   7  20
TORSDOF 2
