REMARK  Name = C:\Users\Maximilian\Desktop\Conformers\converted_pdb\conformers_pdb\Lenalidomide_conf_6.pdb
REMARK  2 active torsions:
REMARK  status: ('A' for Active; 'I' for Inactive)
REMARK    1  A    between atoms: N4_2  and  C7_11
REMARK    2  A    between atoms: C16_7  and  N6_20
REMARK                            x       y       z     vdW  Elec       q    Type
REMARK                         _______ _______ _______ _____ _____    ______ ____
ROOT
ATOM      1  O1  UNK     0       1.007   0.116   1.874  0.00  0.00    +0.000 OA
ATOM      2  N4  UNK     0       0.338   0.584  -0.367  0.00  0.00    +0.000 N 
ATOM      3  C9  UNK     0      -0.943   0.518  -1.081  0.00  0.00    +0.000 C 
ATOM      4  C10 UNK     0      -1.912   0.041  -0.034  0.00  0.00    +0.000 A 
ATOM      5  C11 UNK     0       0.119   0.167   0.983  0.00  0.00    +0.000 C 
ATOM      6  C13 UNK     0      -1.270  -0.161   1.170  0.00  0.00    +0.000 A 
ATOM      7  C16 UNK     0      -3.287  -0.199  -0.159  0.00  0.00    +0.000 A 
ATOM      8  C17 UNK     0      -1.945  -0.606   2.305  0.00  0.00    +0.000 A 
ATOM      9  C18 UNK     0      -3.991  -0.650   0.976  0.00  0.00    +0.000 A 
ATOM     10  C19 UNK     0      -3.323  -0.852   2.200  0.00  0.00    +0.000 A 
ENDROOT
BRANCH   2  11
ATOM     11  C7  UNK     0       1.616   0.904  -1.018  0.00  0.00    +0.000 C 
ATOM     12  C8  UNK     0       2.318  -0.371  -1.527  0.00  0.00    +0.000 C 
ATOM     13  C12 UNK     0       2.973  -1.182  -0.404  0.00  0.00    +0.000 C 
ATOM     14  C15 UNK     0       3.873  -0.317   0.429  0.00  0.00    +0.000 C 
ATOM     15  N5  UNK     0       3.603   1.081   0.578  0.00  0.00    +0.000 N 
ATOM     16  O3  UNK     0       4.843  -0.835   1.042  0.00  0.00    +0.000 OA
ATOM     17  H27 UNK     0       4.215   1.658   1.198  0.00  0.00    +0.000 HD
ATOM     18  C14 UNK     0       2.512   1.705  -0.110  0.00  0.00    +0.000 C 
ATOM     19  O2  UNK     0       2.280   2.930   0.071  0.00  0.00    +0.000 OA
ENDBRANCH   2  11
BRANCH   7  20
ATOM     20  N6  UNK     0      -3.966   0.004  -1.401  0.00  0.00    +0.000 N 
ATOM     21  H31 UNK     0      -4.991  -0.178  -1.483  0.00  0.00    +0.000 HD
ATOM     22  H32 UNK     0      -3.455   0.337  -2.248  0.00  0.00    +0.000 HD
ENDBRANCH   7  20
TORSDOF 2
