REMARK  Name = C:\Users\Maximilian\Desktop\Conformers\converted_pdb\conformers_pdb\Lenalidomide_conf_3.pdb
REMARK  2 active torsions:
REMARK  status: ('A' for Active; 'I' for Inactive)
REMARK    1  A    between atoms: N4_2  and  C7_11
REMARK    2  A    between atoms: C16_7  and  N6_20
REMARK                            x       y       z     vdW  Elec       q    Type
REMARK                         _______ _______ _______ _____ _____    ______ ____
ROOT
ATOM      1  O1  UNK     0       0.625  -2.063   0.684  0.00  0.00    +0.000 OA
ATOM      2  N4  UNK     0       0.245   0.223   0.138  0.00  0.00    +0.000 N 
ATOM      3  C9  UNK     0      -0.954   1.032  -0.108  0.00  0.00    +0.000 C 
ATOM      4  C10 UNK     0      -2.082   0.046   0.044  0.00  0.00    +0.000 A 
ATOM      5  C11 UNK     0      -0.162  -1.117   0.413  0.00  0.00    +0.000 C 
ATOM      6  C13 UNK     0      -1.597  -1.209   0.349  0.00  0.00    +0.000 A 
ATOM      7  C16 UNK     0      -3.460   0.267  -0.084  0.00  0.00    +0.000 A 
ATOM      8  C17 UNK     0      -2.439  -2.302   0.543  0.00  0.00    +0.000 A 
ATOM      9  C18 UNK     0      -4.331  -0.825   0.107  0.00  0.00    +0.000 A 
ATOM     10  C19 UNK     0      -3.822  -2.101   0.419  0.00  0.00    +0.000 A 
ENDROOT
BRANCH   2  11
ATOM     11  C7  UNK     0       1.618   0.736   0.093  0.00  0.00    +0.000 C 
ATOM     12  C8  UNK     0       2.381   0.107  -1.086  0.00  0.00    +0.000 C 
ATOM     13  C12 UNK     0       3.845   0.559  -1.107  0.00  0.00    +0.000 C 
ATOM     14  C15 UNK     0       4.508   0.257   0.205  0.00  0.00    +0.000 C 
ATOM     15  N5  UNK     0       3.746   0.256   1.416  0.00  0.00    +0.000 N 
ATOM     16  O3  UNK     0       5.751   0.053   0.246  0.00  0.00    +0.000 OA
ATOM     17  H27 UNK     0       4.228   0.085   2.328  0.00  0.00    +0.000 HD
ATOM     18  C14 UNK     0       2.332   0.483   1.399  0.00  0.00    +0.000 C 
ATOM     19  O2  UNK     0       1.697   0.539   2.486  0.00  0.00    +0.000 OA
ENDBRANCH   2  11
BRANCH   7  20
ATOM     20  N6  UNK     0      -3.978   1.563  -0.400  0.00  0.00    +0.000 N 
ATOM     21  H31 UNK     0      -3.342   2.378  -0.544  0.00  0.00    +0.000 HD
ATOM     22  H32 UNK     0      -5.007   1.716  -0.493  0.00  0.00    +0.000 HD
ENDBRANCH   7  20
TORSDOF 2
