REMARK  Name = C:\Users\Maximilian\Desktop\Conformers\converted_pdb\conformers_pdb\Lenalidomide_conf_1.pdb
REMARK  2 active torsions:
REMARK  status: ('A' for Active; 'I' for Inactive)
REMARK    1  A    between atoms: N4_2  and  C7_11
REMARK    2  A    between atoms: C16_7  and  N6_20
REMARK                            x       y       z     vdW  Elec       q    Type
REMARK                         _______ _______ _______ _____ _____    ______ ____
ROOT
ATOM      1  O1  UNK     0       0.826   1.905   0.480  0.00  0.00    +0.000 OA
ATOM      2  N4  UNK     0       0.453  -0.194  -0.590  0.00  0.00    +0.000 N 
ATOM      3  C9  UNK     0      -0.749  -0.980  -0.897  0.00  0.00    +0.000 C 
ATOM      4  C10 UNK     0      -1.874  -0.139  -0.357  0.00  0.00    +0.000 A 
ATOM      5  C11 UNK     0       0.045   0.999   0.083  0.00  0.00    +0.000 C 
ATOM      6  C13 UNK     0      -1.388   1.017   0.216  0.00  0.00    +0.000 A 
ATOM      7  C16 UNK     0      -3.251  -0.401  -0.378  0.00  0.00    +0.000 A 
ATOM      8  C17 UNK     0      -2.227   1.969   0.793  0.00  0.00    +0.000 A 
ATOM      9  C18 UNK     0      -4.119   0.547   0.200  0.00  0.00    +0.000 A 
ATOM     10  C19 UNK     0      -3.609   1.725   0.781  0.00  0.00    +0.000 A 
ENDROOT
BRANCH   2  11
ATOM     11  C7  UNK     0       1.820  -0.671  -0.839  0.00  0.00    +0.000 C 
ATOM     12  C8  UNK     0       2.378  -1.427   0.383  0.00  0.00    +0.000 C 
ATOM     13  C12 UNK     0       2.798  -0.495   1.525  0.00  0.00    +0.000 C 
ATOM     14  C15 UNK     0       3.727   0.574   1.030  0.00  0.00    +0.000 C 
ATOM     15  N5  UNK     0       3.647   1.039  -0.322  0.00  0.00    +0.000 N 
ATOM     16  O3  UNK     0       4.549   1.103   1.824  0.00  0.00    +0.000 OA
ATOM     17  H27 UNK     0       4.272   1.815  -0.635  0.00  0.00    +0.000 HD
ATOM     18  C14 UNK     0       2.729   0.456  -1.255  0.00  0.00    +0.000 C 
ATOM     19  O2  UNK     0       2.658   0.912  -2.427  0.00  0.00    +0.000 OA
ENDBRANCH   2  11
BRANCH   7  20
ATOM     20  N6  UNK     0      -3.770  -1.597  -0.967  0.00  0.00    +0.000 N 
ATOM     21  H31 UNK     0      -3.136  -2.307  -1.397  0.00  0.00    +0.000 HD
ATOM     22  H32 UNK     0      -4.797  -1.783  -0.977  0.00  0.00    +0.000 HD
ENDBRANCH   7  20
TORSDOF 2
