REMARK  Name = C:\Users\Maximilian\Desktop\Conformers\converted_pdb\conformers_pdb\Lenalidomide_conf_4.pdb
REMARK  2 active torsions:
REMARK  status: ('A' for Active; 'I' for Inactive)
REMARK    1  A    between atoms: N4_2  and  C7_11
REMARK    2  A    between atoms: C16_7  and  N6_20
REMARK                            x       y       z     vdW  Elec       q    Type
REMARK                         _______ _______ _______ _____ _____    ______ ____
ROOT
ATOM      1  O1  UNK     0      -0.207  -3.111  -0.573  0.00  0.00    +0.000 OA
ATOM      2  N4  UNK     0       0.486  -0.907  -0.008  0.00  0.00    +0.000 N 
ATOM      3  C9  UNK     0      -0.232   0.358   0.211  0.00  0.00    +0.000 C 
ATOM      4  C10 UNK     0      -1.681  -0.016   0.054  0.00  0.00    +0.000 A 
ATOM      5  C11 UNK     0      -0.485  -1.914  -0.293  0.00  0.00    +0.000 C 
ATOM      6  C13 UNK     0      -1.809  -1.355  -0.239  0.00  0.00    +0.000 A 
ATOM      7  C16 UNK     0      -2.813   0.804   0.164  0.00  0.00    +0.000 A 
ATOM      8  C17 UNK     0      -3.050  -1.955  -0.441  0.00  0.00    +0.000 A 
ATOM      9  C18 UNK     0      -4.080   0.219  -0.033  0.00  0.00    +0.000 A 
ATOM     10  C19 UNK     0      -4.197  -1.153  -0.334  0.00  0.00    +0.000 A 
ENDROOT
BRANCH   2  11
ATOM     11  C7  UNK     0       1.919  -1.044  -0.301  0.00  0.00    +0.000 C 
ATOM     12  C8  UNK     0       2.804  -0.385   0.781  0.00  0.00    +0.000 C 
ATOM     13  C12 UNK     0       2.974   1.133   0.623  0.00  0.00    +0.000 C 
ATOM     14  C15 UNK     0       3.348   1.503  -0.779  0.00  0.00    +0.000 C 
ATOM     15  N5  UNK     0       2.916   0.704  -1.882  0.00  0.00    +0.000 N 
ATOM     16  O3  UNK     0       4.001   2.560  -0.991  0.00  0.00    +0.000 OA
ATOM     17  H27 UNK     0       3.130   1.019  -2.855  0.00  0.00    +0.000 HD
ATOM     18  C14 UNK     0       2.221  -0.531  -1.685  0.00  0.00    +0.000 C 
ATOM     19  O2  UNK     0       1.838  -1.193  -2.686  0.00  0.00    +0.000 OA
ENDBRANCH   2  11
BRANCH   7  20
ATOM     20  N6  UNK     0      -2.694   2.197   0.466  0.00  0.00    +0.000 N 
ATOM     21  H31 UNK     0      -3.545   2.798   0.545  0.00  0.00    +0.000 HD
ATOM     22  H32 UNK     0      -1.761   2.640   0.613  0.00  0.00    +0.000 HD
ENDBRANCH   7  20
TORSDOF 2
