REMARK  Name = C:\Users\Maximilian\Desktop\Conformers\converted_pdb\conformers_pdb\Lenalidomide_conf_2.pdb
REMARK  2 active torsions:
REMARK  status: ('A' for Active; 'I' for Inactive)
REMARK    1  A    between atoms: N4_2  and  C7_11
REMARK    2  A    between atoms: C16_7  and  N6_20
REMARK                            x       y       z     vdW  Elec       q    Type
REMARK                         _______ _______ _______ _____ _____    ______ ____
ROOT
ATOM      1  O1  UNK     0      -0.121   2.907   0.191  0.00  0.00    +0.000 OA
ATOM      2  N4  UNK     0       0.267   0.589  -0.171  0.00  0.00    +0.000 N 
ATOM      3  C9  UNK     0      -0.574  -0.614  -0.077  0.00  0.00    +0.000 C 
ATOM      4  C10 UNK     0      -1.935  -0.072   0.267  0.00  0.00    +0.000 A 
ATOM      5  C11 UNK     0      -0.544   1.722   0.135  0.00  0.00    +0.000 C 
ATOM      6  C13 UNK     0      -1.897   1.301   0.388  0.00  0.00    +0.000 A 
ATOM      7  C16 UNK     0      -3.132  -0.774   0.468  0.00  0.00    +0.000 A 
ATOM      8  C17 UNK     0      -3.027   2.049   0.713  0.00  0.00    +0.000 A 
ATOM      9  C18 UNK     0      -4.289  -0.039   0.795  0.00  0.00    +0.000 A 
ATOM     10  C19 UNK     0      -4.236   1.364   0.916  0.00  0.00    +0.000 A 
ENDROOT
BRANCH   2  11
ATOM     11  C7  UNK     0       1.734   0.601  -0.215  0.00  0.00    +0.000 C 
ATOM     12  C8  UNK     0       2.250  -0.322  -1.335  0.00  0.00    +0.000 C 
ATOM     13  C12 UNK     0       3.781  -0.365  -1.356  0.00  0.00    +0.000 C 
ATOM     14  C15 UNK     0       4.315  -0.773  -0.013  0.00  0.00    +0.000 C 
ATOM     15  N5  UNK     0       3.585  -0.463   1.180  0.00  0.00    +0.000 N 
ATOM     16  O3  UNK     0       5.433  -1.347   0.069  0.00  0.00    +0.000 OA
ATOM     17  H27 UNK     0       3.983  -0.726   2.109  0.00  0.00    +0.000 HD
ATOM     18  C14 UNK     0       2.313   0.193   1.118  0.00  0.00    +0.000 C 
ATOM     19  O2  UNK     0       1.713   0.489   2.186  0.00  0.00    +0.000 OA
ENDBRANCH   2  11
BRANCH   7  20
ATOM     20  N6  UNK     0      -3.185  -2.198   0.349  0.00  0.00    +0.000 N 
ATOM     21  H31 UNK     0      -4.082  -2.711   0.502  0.00  0.00    +0.000 HD
ATOM     22  H32 UNK     0      -2.334  -2.753   0.109  0.00  0.00    +0.000 HD
ENDBRANCH   7  20
TORSDOF 2
