REMARK  Name = C:\Users\Maximilian\Desktop\Conformers\converted_pdb\conformers_pdb\Licochalcone A_conf_12.pdb
REMARK  11 active torsions:
REMARK  status: ('A' for Active; 'I' for Inactive)
REMARK    1  A    between atoms: C6_1  and  C5_21
REMARK    2  A    between atoms: C11_3  and  O1_26
REMARK    3  A    between atoms: C12_4  and  C15_7
REMARK    4  A    between atoms: C14_6  and  O2_19
REMARK    5  A    between atoms: C17_8  and  C18_9
REMARK    6  A    between atoms: C18_9  and  C20_11
REMARK    7  A    between atoms: C25_14  and  O4_17
REMARK    8  A    between atoms: O2_19  and  C19_20
REMARK    9  A    between atoms: C5_21  and  C8_22
REMARK   10  A    between atoms: C5_21  and  C7_23
REMARK   11  A    between atoms: C5_21  and  C9_24
REMARK                            x       y       z     vdW  Elec       q    Type
REMARK                         _______ _______ _______ _____ _____    ______ ____
ROOT
ATOM      1  C6  UNK     0      -2.283   0.340   0.323  0.00  0.00    +0.000 A 
ATOM      2  C10 UNK     0      -0.903   0.194   0.046  0.00  0.00    +0.000 A 
ATOM      3  C11 UNK     0      -2.944  -0.746   0.954  0.00  0.00    +0.000 A 
ATOM      4  C12 UNK     0      -0.205  -0.979   0.367  0.00  0.00    +0.000 A 
ATOM      5  C13 UNK     0      -2.253  -1.928   1.248  0.00  0.00    +0.000 A 
ATOM      6  C14 UNK     0      -0.890  -2.065   0.944  0.00  0.00    +0.000 A 
ENDROOT
BRANCH   1   7
ATOM      7  C5  UNK     0      -3.048   1.650   0.011  0.00  0.00    +0.000 C 
ATOM      8  C8  UNK     0      -2.218   2.653  -0.827  0.00  0.00    +0.000 C 
ATOM      9  C7  UNK     0      -3.409   2.332   1.352  0.00  0.00    +0.000 C 
BRANCH   7  10
ATOM     10  C9  UNK     0      -4.305   1.317  -0.792  0.00  0.00    +0.000 C 
ATOM     11  C16 UNK     0      -5.279   2.202  -1.042  0.00  0.00    +0.000 C 
ENDBRANCH   7  10
ENDBRANCH   1   7
BRANCH   4  12
ATOM     12  C15 UNK     0       1.237  -1.042   0.038  0.00  0.00    +0.000 C 
ATOM     13  C17 UNK     0       2.151  -1.546   0.879  0.00  0.00    +0.000 C 
BRANCH  13  14
ATOM     14  C18 UNK     0       3.593  -1.591   0.562  0.00  0.00    +0.000 C 
ATOM     15  O3  UNK     0       4.289  -2.494   1.100  0.00  0.00    +0.000 OA
BRANCH  14  16
ATOM     16  C20 UNK     0       4.255  -0.618  -0.339  0.00  0.00    +0.000 A 
ATOM     17  C21 UNK     0       5.314  -1.033  -1.163  0.00  0.00    +0.000 A 
ATOM     18  C23 UNK     0       5.959  -0.119  -2.002  0.00  0.00    +0.000 A 
ATOM     19  C25 UNK     0       5.563   1.222  -2.019  0.00  0.00    +0.000 A 
ATOM     20  C24 UNK     0       4.520   1.648  -1.187  0.00  0.00    +0.000 A 
ATOM     21  C22 UNK     0       3.874   0.737  -0.347  0.00  0.00    +0.000 A 
BRANCH  19  22
ATOM     22  O4  UNK     0       6.214   2.121  -2.861  0.00  0.00    +0.000 OA
ATOM     23  H47 UNK     0       5.951   3.099  -2.896  0.00  0.00    +0.000 HD
ENDBRANCH  19  22
ENDBRANCH  14  16
ENDBRANCH  13  14
ENDBRANCH   4  12
BRANCH   6  24
ATOM     24  O2  UNK     0      -0.202  -3.268   1.179  0.00  0.00    +0.000 OA
ATOM     25  C19 UNK     0      -0.779  -4.435   1.755  0.00  0.00    +0.000 C 
ENDBRANCH   6  24
BRANCH   3  26
ATOM     26  O1  UNK     0      -4.298  -0.658   1.283  0.00  0.00    +0.000 OA
ATOM     27  H38 UNK     0      -4.791  -1.422   1.731  0.00  0.00    +0.000 HD
ENDBRANCH   3  26
TORSDOF 8
