REMARK  Name = C:\Users\Maximilian\Desktop\Conformers\converted_pdb\conformers_pdb\Licochalcone A_conf_13.pdb
REMARK  11 active torsions:
REMARK  status: ('A' for Active; 'I' for Inactive)
REMARK    1  A    between atoms: C6_1  and  C5_21
REMARK    2  A    between atoms: C11_3  and  O1_26
REMARK    3  A    between atoms: C12_4  and  C15_7
REMARK    4  A    between atoms: C14_6  and  O2_19
REMARK    5  A    between atoms: C17_8  and  C18_9
REMARK    6  A    between atoms: C18_9  and  C20_11
REMARK    7  A    between atoms: C25_14  and  O4_17
REMARK    8  A    between atoms: O2_19  and  C19_20
REMARK    9  A    between atoms: C5_21  and  C8_22
REMARK   10  A    between atoms: C5_21  and  C7_23
REMARK   11  A    between atoms: C5_21  and  C9_24
REMARK                            x       y       z     vdW  Elec       q    Type
REMARK                         _______ _______ _______ _____ _____    ______ ____
ROOT
ATOM      1  C6  UNK     0      -2.715  -0.262  -0.464  0.00  0.00    +0.000 A 
ATOM      2  C10 UNK     0      -1.887   0.411   0.467  0.00  0.00    +0.000 A 
ATOM      3  C11 UNK     0      -2.137  -1.331  -1.199  0.00  0.00    +0.000 A 
ATOM      4  C12 UNK     0      -0.578  -0.012   0.730  0.00  0.00    +0.000 A 
ATOM      5  C13 UNK     0      -0.840  -1.777  -0.905  0.00  0.00    +0.000 A 
ATOM      6  C14 UNK     0      -0.062  -1.143   0.075  0.00  0.00    +0.000 A 
ENDROOT
BRANCH   1   7
ATOM      7  C5  UNK     0      -4.141   0.268  -0.762  0.00  0.00    +0.000 C 
ATOM      8  C8  UNK     0      -5.160  -0.872  -1.035  0.00  0.00    +0.000 C 
ATOM      9  C7  UNK     0      -4.062   1.177  -2.004  0.00  0.00    +0.000 C 
BRANCH   7  10
ATOM     10  C9  UNK     0      -4.694   1.092   0.404  0.00  0.00    +0.000 C 
ATOM     11  C16 UNK     0      -4.924   0.564   1.613  0.00  0.00    +0.000 C 
ENDBRANCH   7  10
ENDBRANCH   1   7
BRANCH   4  12
ATOM     12  C15 UNK     0       0.219   0.732   1.733  0.00  0.00    +0.000 C 
ATOM     13  C17 UNK     0       1.450   1.226   1.519  0.00  0.00    +0.000 C 
BRANCH  13  14
ATOM     14  C18 UNK     0       2.137   1.211   0.204  0.00  0.00    +0.000 C 
ATOM     15  O3  UNK     0       1.444   1.314  -0.845  0.00  0.00    +0.000 OA
BRANCH  14  16
ATOM     16  C20 UNK     0       3.614   1.075   0.080  0.00  0.00    +0.000 A 
ATOM     17  C21 UNK     0       4.169   0.681  -1.154  0.00  0.00    +0.000 A 
ATOM     18  C23 UNK     0       5.551   0.535  -1.300  0.00  0.00    +0.000 A 
ATOM     19  C25 UNK     0       6.404   0.787  -0.219  0.00  0.00    +0.000 A 
ATOM     20  C24 UNK     0       5.868   1.183   1.009  0.00  0.00    +0.000 A 
ATOM     21  C22 UNK     0       4.485   1.323   1.163  0.00  0.00    +0.000 A 
BRANCH  19  22
ATOM     22  O4  UNK     0       7.783   0.648  -0.356  0.00  0.00    +0.000 OA
ATOM     23  H47 UNK     0       8.200   0.375  -1.239  0.00  0.00    +0.000 HD
ENDBRANCH  19  22
ENDBRANCH  14  16
ENDBRANCH  13  14
ENDBRANCH   4  12
BRANCH   6  24
ATOM     24  O2  UNK     0       1.220  -1.607   0.419  0.00  0.00    +0.000 OA
ATOM     25  C19 UNK     0       1.898  -2.676  -0.233  0.00  0.00    +0.000 C 
ENDBRANCH   6  24
BRANCH   3  26
ATOM     26  O1  UNK     0      -2.833  -1.949  -2.237  0.00  0.00    +0.000 OA
ATOM     27  H38 UNK     0      -2.432  -2.709  -2.775  0.00  0.00    +0.000 HD
ENDBRANCH   3  26
TORSDOF 8
