REMARK  Name = C:\Users\Maximilian\Desktop\Conformers\converted_pdb\conformers_pdb\Licochalcone A_conf_20.pdb
REMARK  11 active torsions:
REMARK  status: ('A' for Active; 'I' for Inactive)
REMARK    1  A    between atoms: C6_1  and  C5_21
REMARK    2  A    between atoms: C11_3  and  O1_26
REMARK    3  A    between atoms: C12_4  and  C15_7
REMARK    4  A    between atoms: C14_6  and  O2_19
REMARK    5  A    between atoms: C17_8  and  C18_9
REMARK    6  A    between atoms: C18_9  and  C20_11
REMARK    7  A    between atoms: C25_14  and  O4_17
REMARK    8  A    between atoms: O2_19  and  C19_20
REMARK    9  A    between atoms: C5_21  and  C8_22
REMARK   10  A    between atoms: C5_21  and  C7_23
REMARK   11  A    between atoms: C5_21  and  C9_24
REMARK                            x       y       z     vdW  Elec       q    Type
REMARK                         _______ _______ _______ _____ _____    ______ ____
ROOT
ATOM      1  C6  UNK     0      -2.871  -0.225   0.243  0.00  0.00    +0.000 A 
ATOM      2  C10 UNK     0      -1.619  -0.841   0.480  0.00  0.00    +0.000 A 
ATOM      3  C11 UNK     0      -2.915   1.193   0.237  0.00  0.00    +0.000 A 
ATOM      4  C12 UNK     0      -0.450  -0.089   0.667  0.00  0.00    +0.000 A 
ATOM      5  C13 UNK     0      -1.753   1.944   0.452  0.00  0.00    +0.000 A 
ATOM      6  C14 UNK     0      -0.518   1.318   0.682  0.00  0.00    +0.000 A 
ENDROOT
BRANCH   1   7
ATOM      7  C5  UNK     0      -4.167  -1.050   0.045  0.00  0.00    +0.000 C 
ATOM      8  C8  UNK     0      -5.080  -0.822   1.273  0.00  0.00    +0.000 C 
ATOM      9  C7  UNK     0      -3.905  -2.572  -0.079  0.00  0.00    +0.000 C 
BRANCH   7  10
ATOM     10  C9  UNK     0      -4.856  -0.600  -1.242  0.00  0.00    +0.000 C 
ATOM     11  C16 UNK     0      -6.094  -0.977  -1.590  0.00  0.00    +0.000 C 
ENDBRANCH   7  10
ENDBRANCH   1   7
BRANCH   4  12
ATOM     12  C15 UNK     0       0.820  -0.818   0.894  0.00  0.00    +0.000 C 
ATOM     13  C17 UNK     0       1.979  -0.444   0.334  0.00  0.00    +0.000 C 
BRANCH  13  14
ATOM     14  C18 UNK     0       3.235  -1.197   0.542  0.00  0.00    +0.000 C 
ATOM     15  O3  UNK     0       3.199  -2.325   1.109  0.00  0.00    +0.000 OA
BRANCH  14  16
ATOM     16  C20 UNK     0       4.541  -0.665   0.077  0.00  0.00    +0.000 A 
ATOM     17  C21 UNK     0       5.599  -1.550  -0.202  0.00  0.00    +0.000 A 
ATOM     18  C23 UNK     0       6.836  -1.063  -0.635  0.00  0.00    +0.000 A 
ATOM     19  C25 UNK     0       7.037   0.314  -0.788  0.00  0.00    +0.000 A 
ATOM     20  C24 UNK     0       5.996   1.201  -0.501  0.00  0.00    +0.000 A 
ATOM     21  C22 UNK     0       4.757   0.719  -0.069  0.00  0.00    +0.000 A 
BRANCH  19  22
ATOM     22  O4  UNK     0       8.266   0.810  -1.219  0.00  0.00    +0.000 OA
ATOM     23  H47 UNK     0       9.040   0.192  -1.433  0.00  0.00    +0.000 HD
ENDBRANCH  19  22
ENDBRANCH  14  16
ENDBRANCH  13  14
ENDBRANCH   4  12
BRANCH   6  24
ATOM     24  O2  UNK     0       0.643   2.062   0.957  0.00  0.00    +0.000 OA
ATOM     25  C19 UNK     0       0.709   3.484   0.991  0.00  0.00    +0.000 C 
ENDBRANCH   6  24
BRANCH   3  26
ATOM     26  O1  UNK     0      -4.119   1.865   0.020  0.00  0.00    +0.000 OA
ATOM     27  H38 UNK     0      -4.174   2.877   0.011  0.00  0.00    +0.000 HD
ENDBRANCH   3  26
TORSDOF 8
