REMARK  Name = C:\Users\Maximilian\Desktop\Conformers\converted_pdb\conformers_pdb\Licochalcone A_conf_21.pdb
REMARK  11 active torsions:
REMARK  status: ('A' for Active; 'I' for Inactive)
REMARK    1  A    between atoms: C6_1  and  C5_21
REMARK    2  A    between atoms: C11_3  and  O1_26
REMARK    3  A    between atoms: C12_4  and  C15_7
REMARK    4  A    between atoms: C14_6  and  O2_19
REMARK    5  A    between atoms: C17_8  and  C18_9
REMARK    6  A    between atoms: C18_9  and  C20_11
REMARK    7  A    between atoms: C25_14  and  O4_17
REMARK    8  A    between atoms: O2_19  and  C19_20
REMARK    9  A    between atoms: C5_21  and  C8_22
REMARK   10  A    between atoms: C5_21  and  C7_23
REMARK   11  A    between atoms: C5_21  and  C9_24
REMARK                            x       y       z     vdW  Elec       q    Type
REMARK                         _______ _______ _______ _____ _____    ______ ____
ROOT
ATOM      1  C6  UNK     0      -1.928  -0.283   0.715  0.00  0.00    +0.000 A 
ATOM      2  C10 UNK     0      -0.651  -0.830   0.448  0.00  0.00    +0.000 A 
ATOM      3  C11 UNK     0      -3.053  -0.962   0.179  0.00  0.00    +0.000 A 
ATOM      4  C12 UNK     0      -0.476  -1.896  -0.448  0.00  0.00    +0.000 A 
ATOM      5  C13 UNK     0      -2.879  -2.053  -0.685  0.00  0.00    +0.000 A 
ATOM      6  C14 UNK     0      -1.596  -2.522  -1.012  0.00  0.00    +0.000 A 
ENDROOT
BRANCH   1   7
ATOM      7  C5  UNK     0      -2.070   0.928   1.672  0.00  0.00    +0.000 C 
ATOM      8  C8  UNK     0      -2.407   0.394   3.078  0.00  0.00    +0.000 C 
ATOM      9  C7  UNK     0      -3.185   1.913   1.226  0.00  0.00    +0.000 C 
BRANCH   7  10
ATOM     10  C9  UNK     0      -0.773   1.737   1.762  0.00  0.00    +0.000 C 
ATOM     11  C16 UNK     0      -0.231   2.353   0.702  0.00  0.00    +0.000 C 
ENDBRANCH   7  10
ENDBRANCH   1   7
BRANCH   4  12
ATOM     12  C15 UNK     0       0.883  -2.410  -0.745  0.00  0.00    +0.000 C 
ATOM     13  C17 UNK     0       1.947  -1.638  -1.018  0.00  0.00    +0.000 C 
BRANCH  13  14
ATOM     14  C18 UNK     0       1.883  -0.177  -1.246  0.00  0.00    +0.000 C 
ATOM     15  O3  UNK     0       0.888   0.303  -1.855  0.00  0.00    +0.000 OA
BRANCH  14  16
ATOM     16  C20 UNK     0       2.979   0.728  -0.812  0.00  0.00    +0.000 A 
ATOM     17  C21 UNK     0       3.999   0.280   0.053  0.00  0.00    +0.000 A 
ATOM     18  C23 UNK     0       5.017   1.148   0.458  0.00  0.00    +0.000 A 
ATOM     19  C25 UNK     0       5.028   2.477   0.018  0.00  0.00    +0.000 A 
ATOM     20  C24 UNK     0       4.013   2.935  -0.827  0.00  0.00    +0.000 A 
ATOM     21  C22 UNK     0       2.995   2.070  -1.239  0.00  0.00    +0.000 A 
BRANCH  19  22
ATOM     22  O4  UNK     0       6.039   3.349   0.416  0.00  0.00    +0.000 OA
ATOM     23  H47 UNK     0       6.798   3.043   1.015  0.00  0.00    +0.000 HD
ENDBRANCH  19  22
ENDBRANCH  14  16
ENDBRANCH  13  14
ENDBRANCH   4  12
BRANCH   6  24
ATOM     24  O2  UNK     0      -1.402  -3.601  -1.891  0.00  0.00    +0.000 OA
ATOM     25  C19 UNK     0      -2.450  -4.321  -2.532  0.00  0.00    +0.000 C 
ENDBRANCH   6  24
BRANCH   3  26
ATOM     26  O1  UNK     0      -4.350  -0.578   0.512  0.00  0.00    +0.000 OA
ATOM     27  H38 UNK     0      -5.164  -1.061   0.148  0.00  0.00    +0.000 HD
ENDBRANCH   3  26
TORSDOF 8
