REMARK  Name = C:\Users\Maximilian\Desktop\Conformers\converted_pdb\conformers_pdb\Licochalcone A_conf_17.pdb
REMARK  11 active torsions:
REMARK  status: ('A' for Active; 'I' for Inactive)
REMARK    1  A    between atoms: C6_1  and  C5_21
REMARK    2  A    between atoms: C11_3  and  O1_26
REMARK    3  A    between atoms: C12_4  and  C15_7
REMARK    4  A    between atoms: C14_6  and  O2_19
REMARK    5  A    between atoms: C17_8  and  C18_9
REMARK    6  A    between atoms: C18_9  and  C20_11
REMARK    7  A    between atoms: C25_14  and  O4_17
REMARK    8  A    between atoms: O2_19  and  C19_20
REMARK    9  A    between atoms: C5_21  and  C8_22
REMARK   10  A    between atoms: C5_21  and  C7_23
REMARK   11  A    between atoms: C5_21  and  C9_24
REMARK                            x       y       z     vdW  Elec       q    Type
REMARK                         _______ _______ _______ _____ _____    ______ ____
ROOT
ATOM      1  C6  UNK     0      -2.437  -0.100   0.112  0.00  0.00    +0.000 A 
ATOM      2  C10 UNK     0      -1.067  -0.187  -0.232  0.00  0.00    +0.000 A 
ATOM      3  C11 UNK     0      -3.187  -1.304   0.137  0.00  0.00    +0.000 A 
ATOM      4  C12 UNK     0      -0.447  -1.423  -0.497  0.00  0.00    +0.000 A 
ATOM      5  C13 UNK     0      -2.575  -2.530  -0.148  0.00  0.00    +0.000 A 
ATOM      6  C14 UNK     0      -1.211  -2.602  -0.466  0.00  0.00    +0.000 A 
ENDROOT
BRANCH   1   7
ATOM      7  C5  UNK     0      -3.128   1.258   0.393  0.00  0.00    +0.000 C 
ATOM      8  C8  UNK     0      -4.105   1.556  -0.769  0.00  0.00    +0.000 C 
ATOM      9  C7  UNK     0      -2.129   2.439   0.494  0.00  0.00    +0.000 C 
BRANCH   7  10
ATOM     10  C9  UNK     0      -3.869   1.177   1.727  0.00  0.00    +0.000 C 
ATOM     11  C16 UNK     0      -4.730   2.111   2.154  0.00  0.00    +0.000 C 
ENDBRANCH   7  10
ENDBRANCH   1   7
BRANCH   4  12
ATOM     12  C15 UNK     0       0.992  -1.496  -0.856  0.00  0.00    +0.000 C 
ATOM     13  C17 UNK     0       1.910  -0.642  -0.380  0.00  0.00    +0.000 C 
BRANCH  13  14
ATOM     14  C18 UNK     0       3.343  -0.745  -0.736  0.00  0.00    +0.000 C 
ATOM     15  O3  UNK     0       3.755  -1.756  -1.369  0.00  0.00    +0.000 OA
BRANCH  14  16
ATOM     16  C20 UNK     0       4.316   0.305  -0.342  0.00  0.00    +0.000 A 
ATOM     17  C21 UNK     0       3.910   1.637  -0.127  0.00  0.00    +0.000 A 
ATOM     18  C23 UNK     0       4.843   2.612   0.237  0.00  0.00    +0.000 A 
ATOM     19  C25 UNK     0       6.191   2.278   0.385  0.00  0.00    +0.000 A 
ATOM     20  C24 UNK     0       6.608   0.959   0.162  0.00  0.00    +0.000 A 
ATOM     21  C22 UNK     0       5.678  -0.019  -0.203  0.00  0.00    +0.000 A 
BRANCH  19  22
ATOM     22  O4  UNK     0       7.109   3.261   0.749  0.00  0.00    +0.000 OA
ATOM     23  H47 UNK     0       8.093   3.050   0.863  0.00  0.00    +0.000 HD
ENDBRANCH  19  22
ENDBRANCH  14  16
ENDBRANCH  13  14
ENDBRANCH   4  12
BRANCH   6  24
ATOM     24  O2  UNK     0      -0.583  -3.829  -0.746  0.00  0.00    +0.000 OA
ATOM     25  C19 UNK     0      -1.236  -5.094  -0.747  0.00  0.00    +0.000 C 
ENDBRANCH   6  24
BRANCH   3  26
ATOM     26  O1  UNK     0      -4.549  -1.287   0.444  0.00  0.00    +0.000 OA
ATOM     27  H38 UNK     0      -5.104  -2.134   0.467  0.00  0.00    +0.000 HD
ENDBRANCH   3  26
TORSDOF 8
