REMARK  Name = C:\Users\Maximilian\Desktop\Conformers\converted_pdb\conformers_pdb\Licochalcone A_conf_9.pdb
REMARK  11 active torsions:
REMARK  status: ('A' for Active; 'I' for Inactive)
REMARK    1  A    between atoms: C6_1  and  C5_21
REMARK    2  A    between atoms: C11_3  and  O1_26
REMARK    3  A    between atoms: C12_4  and  C15_7
REMARK    4  A    between atoms: C14_6  and  O2_19
REMARK    5  A    between atoms: C17_8  and  C18_9
REMARK    6  A    between atoms: C18_9  and  C20_11
REMARK    7  A    between atoms: C25_14  and  O4_17
REMARK    8  A    between atoms: O2_19  and  C19_20
REMARK    9  A    between atoms: C5_21  and  C8_22
REMARK   10  A    between atoms: C5_21  and  C7_23
REMARK   11  A    between atoms: C5_21  and  C9_24
REMARK                            x       y       z     vdW  Elec       q    Type
REMARK                         _______ _______ _______ _____ _____    ______ ____
ROOT
ATOM      1  C6  UNK     0      -2.989   0.058   0.200  0.00  0.00    +0.000 A 
ATOM      2  C10 UNK     0      -1.812   0.488  -0.458  0.00  0.00    +0.000 A 
ATOM      3  C11 UNK     0      -2.841  -0.536   1.480  0.00  0.00    +0.000 A 
ATOM      4  C12 UNK     0      -0.555   0.434   0.159  0.00  0.00    +0.000 A 
ATOM      5  C13 UNK     0      -1.590  -0.557   2.112  0.00  0.00    +0.000 A 
ATOM      6  C14 UNK     0      -0.446  -0.053   1.475  0.00  0.00    +0.000 A 
ENDROOT
BRANCH   1   7
ATOM      7  C5  UNK     0      -4.346   0.105  -0.548  0.00  0.00    +0.000 C 
ATOM      8  C8  UNK     0      -5.555   0.353   0.393  0.00  0.00    +0.000 C 
ATOM      9  C7  UNK     0      -4.541  -1.245  -1.263  0.00  0.00    +0.000 C 
BRANCH   7  10
ATOM     10  C9  UNK     0      -4.368   1.217  -1.597  0.00  0.00    +0.000 C 
ATOM     11  C16 UNK     0      -4.225   2.510  -1.277  0.00  0.00    +0.000 C 
ENDBRANCH   7  10
ENDBRANCH   1   7
BRANCH   4  12
ATOM     12  C15 UNK     0       0.616   0.934  -0.598  0.00  0.00    +0.000 C 
ATOM     13  C17 UNK     0       1.805   0.316  -0.585  0.00  0.00    +0.000 C 
BRANCH  13  14
ATOM     14  C18 UNK     0       2.959   0.808  -1.370  0.00  0.00    +0.000 C 
ATOM     15  O3  UNK     0       2.788   1.724  -2.220  0.00  0.00    +0.000 OA
BRANCH  14  16
ATOM     16  C20 UNK     0       4.315   0.229  -1.194  0.00  0.00    +0.000 A 
ATOM     17  C21 UNK     0       5.249   0.302  -2.244  0.00  0.00    +0.000 A 
ATOM     18  C23 UNK     0       6.532  -0.233  -2.092  0.00  0.00    +0.000 A 
ATOM     19  C25 UNK     0       6.904  -0.840  -0.889  0.00  0.00    +0.000 A 
ATOM     20  C24 UNK     0       5.987  -0.907   0.167  0.00  0.00    +0.000 A 
ATOM     21  C22 UNK     0       4.703  -0.374   0.019  0.00  0.00    +0.000 A 
BRANCH  19  22
ATOM     22  O4  UNK     0       8.185  -1.369  -0.752  0.00  0.00    +0.000 OA
ATOM     23  H47 UNK     0       8.485  -1.814   0.107  0.00  0.00    +0.000 HD
ENDBRANCH  19  22
ENDBRANCH  14  16
ENDBRANCH  13  14
ENDBRANCH   4  12
BRANCH   6  24
ATOM     24  O2  UNK     0       0.799  -0.009   2.126  0.00  0.00    +0.000 OA
ATOM     25  C19 UNK     0       1.043  -0.479   3.448  0.00  0.00    +0.000 C 
ENDBRANCH   6  24
BRANCH   3  26
ATOM     26  O1  UNK     0      -3.923  -1.123   2.133  0.00  0.00    +0.000 OA
ATOM     27  H38 UNK     0      -3.831  -1.556   3.045  0.00  0.00    +0.000 HD
ENDBRANCH   3  26
TORSDOF 8
