REMARK  Name = C:\Users\Maximilian\Desktop\Conformers\converted_pdb\conformers_pdb\Licochalcone A_conf_5.pdb
REMARK  11 active torsions:
REMARK  status: ('A' for Active; 'I' for Inactive)
REMARK    1  A    between atoms: C6_1  and  C5_21
REMARK    2  A    between atoms: C11_3  and  O1_26
REMARK    3  A    between atoms: C12_4  and  C15_7
REMARK    4  A    between atoms: C14_6  and  O2_19
REMARK    5  A    between atoms: C17_8  and  C18_9
REMARK    6  A    between atoms: C18_9  and  C20_11
REMARK    7  A    between atoms: C25_14  and  O4_17
REMARK    8  A    between atoms: O2_19  and  C19_20
REMARK    9  A    between atoms: C5_21  and  C8_22
REMARK   10  A    between atoms: C5_21  and  C7_23
REMARK   11  A    between atoms: C5_21  and  C9_24
REMARK                            x       y       z     vdW  Elec       q    Type
REMARK                         _______ _______ _______ _____ _____    ______ ____
ROOT
ATOM      1  C6  UNK     0      -2.412  -0.422   0.038  0.00  0.00    +0.000 A 
ATOM      2  C10 UNK     0      -1.005  -0.547  -0.041  0.00  0.00    +0.000 A 
ATOM      3  C11 UNK     0      -3.174  -0.845  -1.081  0.00  0.00    +0.000 A 
ATOM      4  C12 UNK     0      -0.368  -1.030  -1.200  0.00  0.00    +0.000 A 
ATOM      5  C13 UNK     0      -2.541  -1.346  -2.225  0.00  0.00    +0.000 A 
ATOM      6  C14 UNK     0      -1.143  -1.443  -2.296  0.00  0.00    +0.000 A 
ENDROOT
BRANCH   1   7
ATOM      7  C5  UNK     0      -3.120   0.098   1.315  0.00  0.00    +0.000 C 
ATOM      8  C8  UNK     0      -2.135   0.675   2.363  0.00  0.00    +0.000 C 
ATOM      9  C7  UNK     0      -3.874  -1.085   1.967  0.00  0.00    +0.000 C 
BRANCH   7  10
ATOM     10  C9  UNK     0      -4.083   1.220   0.933  0.00  0.00    +0.000 C 
ATOM     11  C16 UNK     0      -4.991   1.736   1.773  0.00  0.00    +0.000 C 
ENDBRANCH   7  10
ENDBRANCH   1   7
BRANCH   4  12
ATOM     12  C15 UNK     0       1.111  -1.155  -1.265  0.00  0.00    +0.000 C 
ATOM     13  C17 UNK     0       1.945  -0.323  -0.624  0.00  0.00    +0.000 C 
BRANCH  13  14
ATOM     14  C18 UNK     0       3.417  -0.454  -0.719  0.00  0.00    +0.000 C 
ATOM     15  O3  UNK     0       3.917  -1.259  -1.552  0.00  0.00    +0.000 OA
BRANCH  14  16
ATOM     16  C20 UNK     0       4.322   0.362   0.129  0.00  0.00    +0.000 A 
ATOM     17  C21 UNK     0       3.906   0.859   1.380  0.00  0.00    +0.000 A 
ATOM     18  C23 UNK     0       4.776   1.620   2.166  0.00  0.00    +0.000 A 
ATOM     19  C25 UNK     0       6.073   1.891   1.722  0.00  0.00    +0.000 A 
ATOM     20  C24 UNK     0       6.501   1.393   0.485  0.00  0.00    +0.000 A 
ATOM     21  C22 UNK     0       5.634   0.631  -0.304  0.00  0.00    +0.000 A 
BRANCH  19  22
ATOM     22  O4  UNK     0       6.928   2.651   2.516  0.00  0.00    +0.000 OA
ATOM     23  H47 UNK     0       7.874   2.864   2.222  0.00  0.00    +0.000 HD
ENDBRANCH  19  22
ENDBRANCH  14  16
ENDBRANCH  13  14
ENDBRANCH   4  12
BRANCH   6  24
ATOM     24  O2  UNK     0      -0.495  -1.936  -3.442  0.00  0.00    +0.000 OA
ATOM     25  C19 UNK     0      -1.159  -2.385  -4.620  0.00  0.00    +0.000 C 
ENDBRANCH   6  24
BRANCH   3  26
ATOM     26  O1  UNK     0      -4.568  -0.772  -1.061  0.00  0.00    +0.000 OA
ATOM     27  H38 UNK     0      -5.131  -1.069  -1.849  0.00  0.00    +0.000 HD
ENDBRANCH   3  26
TORSDOF 8
