REMARK  Name = C:\Users\Maximilian\Desktop\Conformers\converted_pdb\conformers_pdb\Licochalcone A_conf_19.pdb
REMARK  11 active torsions:
REMARK  status: ('A' for Active; 'I' for Inactive)
REMARK    1  A    between atoms: C6_1  and  C5_21
REMARK    2  A    between atoms: C11_3  and  O1_26
REMARK    3  A    between atoms: C12_4  and  C15_7
REMARK    4  A    between atoms: C14_6  and  O2_19
REMARK    5  A    between atoms: C17_8  and  C18_9
REMARK    6  A    between atoms: C18_9  and  C20_11
REMARK    7  A    between atoms: C25_14  and  O4_17
REMARK    8  A    between atoms: O2_19  and  C19_20
REMARK    9  A    between atoms: C5_21  and  C8_22
REMARK   10  A    between atoms: C5_21  and  C7_23
REMARK   11  A    between atoms: C5_21  and  C9_24
REMARK                            x       y       z     vdW  Elec       q    Type
REMARK                         _______ _______ _______ _____ _____    ______ ____
ROOT
ATOM      1  C6  UNK     0      -2.571   0.017  -0.048  0.00  0.00    +0.000 A 
ATOM      2  C10 UNK     0      -1.171  -0.127   0.100  0.00  0.00    +0.000 A 
ATOM      3  C11 UNK     0      -3.351  -1.168  -0.061  0.00  0.00    +0.000 A 
ATOM      4  C12 UNK     0      -0.571  -1.378   0.333  0.00  0.00    +0.000 A 
ATOM      5  C13 UNK     0      -2.758  -2.410   0.199  0.00  0.00    +0.000 A 
ATOM      6  C14 UNK     0      -1.376  -2.526   0.411  0.00  0.00    +0.000 A 
ENDROOT
BRANCH   1   7
ATOM      7  C5  UNK     0      -3.167   1.419  -0.335  0.00  0.00    +0.000 C 
ATOM      8  C8  UNK     0      -4.610   1.600   0.206  0.00  0.00    +0.000 C 
ATOM      9  C7  UNK     0      -3.181   1.624  -1.861  0.00  0.00    +0.000 C 
BRANCH   7  10
ATOM     10  C9  UNK     0      -2.321   2.524   0.297  0.00  0.00    +0.000 C 
ATOM     11  C16 UNK     0      -2.117   2.607   1.619  0.00  0.00    +0.000 C 
ENDBRANCH   7  10
ENDBRANCH   1   7
BRANCH   4  12
ATOM     12  C15 UNK     0       0.896  -1.500   0.536  0.00  0.00    +0.000 C 
ATOM     13  C17 UNK     0       1.788  -0.693  -0.056  0.00  0.00    +0.000 C 
BRANCH  13  14
ATOM     14  C18 UNK     0       3.247  -0.845   0.148  0.00  0.00    +0.000 C 
ATOM     15  O3  UNK     0       3.687  -1.860   0.757  0.00  0.00    +0.000 OA
BRANCH  14  16
ATOM     16  C20 UNK     0       4.209   0.158  -0.371  0.00  0.00    +0.000 A 
ATOM     17  C21 UNK     0       5.536  -0.221  -0.647  0.00  0.00    +0.000 A 
ATOM     18  C23 UNK     0       6.457   0.714  -1.130  0.00  0.00    +0.000 A 
ATOM     19  C25 UNK     0       6.068   2.043  -1.337  0.00  0.00    +0.000 A 
ATOM     20  C24 UNK     0       4.756   2.432  -1.055  0.00  0.00    +0.000 A 
ATOM     21  C22 UNK     0       3.832   1.501  -0.572  0.00  0.00    +0.000 A 
BRANCH  19  22
ATOM     22  O4  UNK     0       6.976   2.983  -1.819  0.00  0.00    +0.000 OA
ATOM     23  H47 UNK     0       7.934   2.732  -2.032  0.00  0.00    +0.000 HD
ENDBRANCH  19  22
ENDBRANCH  14  16
ENDBRANCH  13  14
ENDBRANCH   4  12
BRANCH   6  24
ATOM     24  O2  UNK     0      -0.771  -3.767   0.675  0.00  0.00    +0.000 OA
ATOM     25  C19 UNK     0      -1.468  -5.005   0.776  0.00  0.00    +0.000 C 
ENDBRANCH   6  24
BRANCH   3  26
ATOM     26  O1  UNK     0      -4.715  -1.133  -0.346  0.00  0.00    +0.000 OA
ATOM     27  H38 UNK     0      -5.282  -1.973  -0.365  0.00  0.00    +0.000 HD
ENDBRANCH   3  26
TORSDOF 8
