REMARK  Name = C:\Users\Maximilian\Desktop\Conformers\converted_pdb\conformers_pdb\Licochalcone A_conf_3.pdb
REMARK  11 active torsions:
REMARK  status: ('A' for Active; 'I' for Inactive)
REMARK    1  A    between atoms: C6_1  and  C5_21
REMARK    2  A    between atoms: C11_3  and  O1_26
REMARK    3  A    between atoms: C12_4  and  C15_7
REMARK    4  A    between atoms: C14_6  and  O2_19
REMARK    5  A    between atoms: C17_8  and  C18_9
REMARK    6  A    between atoms: C18_9  and  C20_11
REMARK    7  A    between atoms: C25_14  and  O4_17
REMARK    8  A    between atoms: O2_19  and  C19_20
REMARK    9  A    between atoms: C5_21  and  C8_22
REMARK   10  A    between atoms: C5_21  and  C7_23
REMARK   11  A    between atoms: C5_21  and  C9_24
REMARK                            x       y       z     vdW  Elec       q    Type
REMARK                         _______ _______ _______ _____ _____    ______ ____
ROOT
ATOM      1  C6  UNK     0      -2.306   0.169   0.289  0.00  0.00    +0.000 A 
ATOM      2  C10 UNK     0      -0.895   0.135   0.188  0.00  0.00    +0.000 A 
ATOM      3  C11 UNK     0      -3.017  -1.016  -0.032  0.00  0.00    +0.000 A 
ATOM      4  C12 UNK     0      -0.211  -1.024  -0.205  0.00  0.00    +0.000 A 
ATOM      5  C13 UNK     0      -2.331  -2.181  -0.397  0.00  0.00    +0.000 A 
ATOM      6  C14 UNK     0      -0.930  -2.205  -0.469  0.00  0.00    +0.000 A 
ENDROOT
BRANCH   1   7
ATOM      7  C5  UNK     0      -3.070   1.460   0.680  0.00  0.00    +0.000 C 
ATOM      8  C8  UNK     0      -3.835   1.966  -0.566  0.00  0.00    +0.000 C 
ATOM      9  C7  UNK     0      -2.134   2.596   1.161  0.00  0.00    +0.000 C 
BRANCH   7  10
ATOM     10  C9  UNK     0      -4.031   1.147   1.825  0.00  0.00    +0.000 C 
ATOM     11  C16 UNK     0      -4.974   1.996   2.253  0.00  0.00    +0.000 C 
ENDBRANCH   7  10
ENDBRANCH   1   7
BRANCH   4  12
ATOM     12  C15 UNK     0       1.266  -0.967  -0.283  0.00  0.00    +0.000 C 
ATOM     13  C17 UNK     0       1.960  -1.508  -1.293  0.00  0.00    +0.000 C 
BRANCH  13  14
ATOM     14  C18 UNK     0       3.433  -1.434  -1.384  0.00  0.00    +0.000 C 
ATOM     15  O3  UNK     0       4.034  -2.349  -2.008  0.00  0.00    +0.000 OA
BRANCH  14  16
ATOM     16  C20 UNK     0       4.226  -0.329  -0.793  0.00  0.00    +0.000 A 
ATOM     17  C21 UNK     0       3.746   0.993  -0.804  0.00  0.00    +0.000 A 
ATOM     18  C23 UNK     0       4.514   2.028  -0.262  0.00  0.00    +0.000 A 
ATOM     19  C25 UNK     0       5.775   1.758   0.285  0.00  0.00    +0.000 A 
ATOM     20  C24 UNK     0       6.265   0.449   0.283  0.00  0.00    +0.000 A 
ATOM     21  C22 UNK     0       5.500  -0.589  -0.259  0.00  0.00    +0.000 A 
BRANCH  19  22
ATOM     22  O4  UNK     0       6.548   2.781   0.829  0.00  0.00    +0.000 OA
ATOM     23  H47 UNK     0       6.221   3.740   0.845  0.00  0.00    +0.000 HD
ENDBRANCH  19  22
ENDBRANCH  14  16
ENDBRANCH  13  14
ENDBRANCH   4  12
BRANCH   6  24
ATOM     24  O2  UNK     0      -0.230  -3.385  -0.774  0.00  0.00    +0.000 OA
ATOM     25  C19 UNK     0      -0.838  -4.641  -1.059  0.00  0.00    +0.000 C 
ENDBRANCH   6  24
BRANCH   3  26
ATOM     26  O1  UNK     0      -4.411  -1.044   0.018  0.00  0.00    +0.000 OA
ATOM     27  H38 UNK     0      -4.939  -1.879  -0.205  0.00  0.00    +0.000 HD
ENDBRANCH   3  26
TORSDOF 8
