REMARK  Name = C:\Users\Maximilian\Desktop\Conformers\converted_pdb\conformers_pdb\Licochalcone A_conf_18.pdb
REMARK  11 active torsions:
REMARK  status: ('A' for Active; 'I' for Inactive)
REMARK    1  A    between atoms: C6_1  and  C5_21
REMARK    2  A    between atoms: C11_3  and  O1_26
REMARK    3  A    between atoms: C12_4  and  C15_7
REMARK    4  A    between atoms: C14_6  and  O2_19
REMARK    5  A    between atoms: C17_8  and  C18_9
REMARK    6  A    between atoms: C18_9  and  C20_11
REMARK    7  A    between atoms: C25_14  and  O4_17
REMARK    8  A    between atoms: O2_19  and  C19_20
REMARK    9  A    between atoms: C5_21  and  C8_22
REMARK   10  A    between atoms: C5_21  and  C7_23
REMARK   11  A    between atoms: C5_21  and  C9_24
REMARK                            x       y       z     vdW  Elec       q    Type
REMARK                         _______ _______ _______ _____ _____    ______ ____
ROOT
ATOM      1  C6  UNK     0      -2.687   0.206  -0.008  0.00  0.00    +0.000 A 
ATOM      2  C10 UNK     0      -1.760  -0.669   0.607  0.00  0.00    +0.000 A 
ATOM      3  C11 UNK     0      -2.237   1.521  -0.320  0.00  0.00    +0.000 A 
ATOM      4  C12 UNK     0      -0.432  -0.299   0.847  0.00  0.00    +0.000 A 
ATOM      5  C13 UNK     0      -0.917   1.902  -0.036  0.00  0.00    +0.000 A 
ATOM      6  C14 UNK     0      -0.013   1.011   0.563  0.00  0.00    +0.000 A 
ENDROOT
BRANCH   1   7
ATOM      7  C5  UNK     0      -4.138  -0.313  -0.205  0.00  0.00    +0.000 C 
ATOM      8  C8  UNK     0      -5.033   0.590  -1.086  0.00  0.00    +0.000 C 
ATOM      9  C7  UNK     0      -4.786  -0.421   1.195  0.00  0.00    +0.000 C 
BRANCH   7  10
ATOM     10  C9  UNK     0      -4.083  -1.685  -0.883  0.00  0.00    +0.000 C 
ATOM     11  C16 UNK     0      -5.132  -2.514  -0.971  0.00  0.00    +0.000 C 
ENDBRANCH   7  10
ENDBRANCH   1   7
BRANCH   4  12
ATOM     12  C15 UNK     0       0.481  -1.296   1.452  0.00  0.00    +0.000 C 
ATOM     13  C17 UNK     0       1.694  -1.608   0.975  0.00  0.00    +0.000 C 
BRANCH  13  14
ATOM     14  C18 UNK     0       2.261  -1.077  -0.286  0.00  0.00    +0.000 C 
ATOM     15  O3  UNK     0       1.496  -0.901  -1.273  0.00  0.00    +0.000 OA
BRANCH  14  16
ATOM     16  C20 UNK     0       3.708  -0.759  -0.418  0.00  0.00    +0.000 A 
ATOM     17  C21 UNK     0       4.230  -0.366  -1.665  0.00  0.00    +0.000 A 
ATOM     18  C23 UNK     0       5.584  -0.035  -1.796  0.00  0.00    +0.000 A 
ATOM     19  C25 UNK     0       6.437  -0.098  -0.692  0.00  0.00    +0.000 A 
ATOM     20  C24 UNK     0       5.929  -0.476   0.556  0.00  0.00    +0.000 A 
ATOM     21  C22 UNK     0       4.574  -0.791   0.697  0.00  0.00    +0.000 A 
BRANCH  19  22
ATOM     22  O4  UNK     0       7.786   0.218  -0.844  0.00  0.00    +0.000 OA
ATOM     23  H47 UNK     0       8.436   0.147  -0.075  0.00  0.00    +0.000 HD
ENDBRANCH  19  22
ENDBRANCH  14  16
ENDBRANCH  13  14
ENDBRANCH   4  12
BRANCH   6  24
ATOM     24  O2  UNK     0       1.294   1.401   0.905  0.00  0.00    +0.000 OA
ATOM     25  C19 UNK     0       1.884   2.652   0.565  0.00  0.00    +0.000 C 
ENDBRANCH   6  24
BRANCH   3  26
ATOM     26  O1  UNK     0      -3.078   2.469  -0.900  0.00  0.00    +0.000 OA
ATOM     27  H38 UNK     0      -2.764   3.407  -1.117  0.00  0.00    +0.000 HD
ENDBRANCH   3  26
TORSDOF 8
