REMARK  Name = C:\Users\Maximilian\Desktop\Conformers\converted_pdb\conformers_pdb\Licochalcone A_conf_10.pdb
REMARK  11 active torsions:
REMARK  status: ('A' for Active; 'I' for Inactive)
REMARK    1  A    between atoms: C6_1  and  C5_21
REMARK    2  A    between atoms: C11_3  and  O1_26
REMARK    3  A    between atoms: C12_4  and  C15_7
REMARK    4  A    between atoms: C14_6  and  O2_19
REMARK    5  A    between atoms: C17_8  and  C18_9
REMARK    6  A    between atoms: C18_9  and  C20_11
REMARK    7  A    between atoms: C25_14  and  O4_17
REMARK    8  A    between atoms: O2_19  and  C19_20
REMARK    9  A    between atoms: C5_21  and  C8_22
REMARK   10  A    between atoms: C5_21  and  C7_23
REMARK   11  A    between atoms: C5_21  and  C9_24
REMARK                            x       y       z     vdW  Elec       q    Type
REMARK                         _______ _______ _______ _____ _____    ______ ____
ROOT
ATOM      1  C6  UNK     0      -2.875   0.145  -0.053  0.00  0.00    +0.000 A 
ATOM      2  C10 UNK     0      -1.652   0.795  -0.342  0.00  0.00    +0.000 A 
ATOM      3  C11 UNK     0      -2.872  -1.273  -0.011  0.00  0.00    +0.000 A 
ATOM      4  C12 UNK     0      -0.474   0.076  -0.591  0.00  0.00    +0.000 A 
ATOM      5  C13 UNK     0      -1.702  -1.992  -0.288  0.00  0.00    +0.000 A 
ATOM      6  C14 UNK     0      -0.503  -1.332  -0.597  0.00  0.00    +0.000 A 
ENDROOT
BRANCH   1   7
ATOM      7  C5  UNK     0      -4.169   0.935   0.267  0.00  0.00    +0.000 C 
ATOM      8  C8  UNK     0      -4.031   2.456   0.005  0.00  0.00    +0.000 C 
ATOM      9  C7  UNK     0      -4.501   0.736   1.765  0.00  0.00    +0.000 C 
BRANCH   7  10
ATOM     10  C9  UNK     0      -5.302   0.423  -0.620  0.00  0.00    +0.000 C 
ATOM     11  C16 UNK     0      -6.587   0.758  -0.448  0.00  0.00    +0.000 C 
ENDBRANCH   7  10
ENDBRANCH   1   7
BRANCH   4  12
ATOM     12  C15 UNK     0       0.761   0.839  -0.886  0.00  0.00    +0.000 C 
ATOM     13  C17 UNK     0       1.958   0.499  -0.389  0.00  0.00    +0.000 C 
BRANCH  13  14
ATOM     14  C18 UNK     0       3.180   1.287  -0.665  0.00  0.00    +0.000 C 
ATOM     15  O3  UNK     0       3.081   2.412  -1.230  0.00  0.00    +0.000 OA
BRANCH  14  16
ATOM     16  C20 UNK     0       4.523   0.793  -0.271  0.00  0.00    +0.000 A 
ATOM     17  C21 UNK     0       4.786  -0.585  -0.137  0.00  0.00    +0.000 A 
ATOM     18  C23 UNK     0       6.060  -1.031   0.229  0.00  0.00    +0.000 A 
ATOM     19  C25 UNK     0       7.089  -0.114   0.458  0.00  0.00    +0.000 A 
ATOM     20  C24 UNK     0       6.841   1.256   0.316  0.00  0.00    +0.000 A 
ATOM     21  C22 UNK     0       5.570   1.707  -0.050  0.00  0.00    +0.000 A 
BRANCH  19  22
ATOM     22  O4  UNK     0       8.352  -0.575   0.823  0.00  0.00    +0.000 OA
ATOM     23  H47 UNK     0       9.119   0.065   0.995  0.00  0.00    +0.000 HD
ENDBRANCH  19  22
ENDBRANCH  14  16
ENDBRANCH  13  14
ENDBRANCH   4  12
BRANCH   6  24
ATOM     24  O2  UNK     0       0.661  -2.045  -0.937  0.00  0.00    +0.000 OA
ATOM     25  C19 UNK     0       0.765  -3.464  -0.970  0.00  0.00    +0.000 C 
ENDBRANCH   6  24
BRANCH   3  26
ATOM     26  O1  UNK     0      -4.036  -1.977   0.298  0.00  0.00    +0.000 OA
ATOM     27  H38 UNK     0      -4.058  -2.990   0.331  0.00  0.00    +0.000 HD
ENDBRANCH   3  26
TORSDOF 8
