REMARK  Name = C:\Users\Maximilian\Desktop\Conformers\converted_pdb\conformers_pdb\Licochalcone A_conf_11.pdb
REMARK  11 active torsions:
REMARK  status: ('A' for Active; 'I' for Inactive)
REMARK    1  A    between atoms: C6_1  and  C5_21
REMARK    2  A    between atoms: C11_3  and  O1_26
REMARK    3  A    between atoms: C12_4  and  C15_7
REMARK    4  A    between atoms: C14_6  and  O2_19
REMARK    5  A    between atoms: C17_8  and  C18_9
REMARK    6  A    between atoms: C18_9  and  C20_11
REMARK    7  A    between atoms: C25_14  and  O4_17
REMARK    8  A    between atoms: O2_19  and  C19_20
REMARK    9  A    between atoms: C5_21  and  C8_22
REMARK   10  A    between atoms: C5_21  and  C7_23
REMARK   11  A    between atoms: C5_21  and  C9_24
REMARK                            x       y       z     vdW  Elec       q    Type
REMARK                         _______ _______ _______ _____ _____    ______ ____
ROOT
ATOM      1  C6  UNK     0      -2.632  -0.132  -0.060  0.00  0.00    +0.000 A 
ATOM      2  C10 UNK     0      -1.625  -1.017  -0.516  0.00  0.00    +0.000 A 
ATOM      3  C11 UNK     0      -2.331   0.685   1.063  0.00  0.00    +0.000 A 
ATOM      4  C12 UNK     0      -0.380  -1.103   0.121  0.00  0.00    +0.000 A 
ATOM      5  C13 UNK     0      -1.099   0.569   1.720  0.00  0.00    +0.000 A 
ATOM      6  C14 UNK     0      -0.124  -0.335   1.272  0.00  0.00    +0.000 A 
ENDROOT
BRANCH   1   7
ATOM      7  C5  UNK     0      -3.996  -0.001  -0.782  0.00  0.00    +0.000 C 
ATOM      8  C8  UNK     0      -4.220  -1.096  -1.858  0.00  0.00    +0.000 C 
ATOM      9  C7  UNK     0      -4.045   1.379  -1.486  0.00  0.00    +0.000 C 
BRANCH   7  10
ATOM     10  C9  UNK     0      -5.121  -0.136   0.244  0.00  0.00    +0.000 C 
ATOM     11  C16 UNK     0      -6.406   0.132  -0.027  0.00  0.00    +0.000 C 
ENDBRANCH   7  10
ENDBRANCH   1   7
BRANCH   4  12
ATOM     12  C15 UNK     0       0.626  -2.052  -0.413  0.00  0.00    +0.000 C 
ATOM     13  C17 UNK     0       1.898  -1.732  -0.703  0.00  0.00    +0.000 C 
BRANCH  13  14
ATOM     14  C18 UNK     0       2.440  -0.353  -0.671  0.00  0.00    +0.000 C 
ATOM     15  O3  UNK     0       1.691   0.611  -0.999  0.00  0.00    +0.000 OA
BRANCH  14  16
ATOM     16  C20 UNK     0       3.848  -0.080  -0.277  0.00  0.00    +0.000 A 
ATOM     17  C21 UNK     0       4.636  -1.064   0.361  0.00  0.00    +0.000 A 
ATOM     18  C23 UNK     0       5.943  -0.773   0.762  0.00  0.00    +0.000 A 
ATOM     19  C25 UNK     0       6.483   0.500   0.543  0.00  0.00    +0.000 A 
ATOM     20  C24 UNK     0       5.710   1.485  -0.086  0.00  0.00    +0.000 A 
ATOM     21  C22 UNK     0       4.403   1.198  -0.491  0.00  0.00    +0.000 A 
BRANCH  19  22
ATOM     22  O4  UNK     0       7.786   0.776   0.954  0.00  0.00    +0.000 OA
ATOM     23  H47 UNK     0       8.199   1.693   0.818  0.00  0.00    +0.000 HD
ENDBRANCH  19  22
ENDBRANCH  14  16
ENDBRANCH  13  14
ENDBRANCH   4  12
BRANCH   6  24
ATOM     24  O2  UNK     0       1.098  -0.502   1.949  0.00  0.00    +0.000 OA
ATOM     25  C19 UNK     0       1.519   0.272   3.067  0.00  0.00    +0.000 C 
ENDBRANCH   6  24
BRANCH   3  26
ATOM     26  O1  UNK     0      -3.261   1.613   1.536  0.00  0.00    +0.000 OA
ATOM     27  H38 UNK     0      -3.072   2.202   2.341  0.00  0.00    +0.000 HD
ENDBRANCH   3  26
TORSDOF 8
