REMARK  Name = C:\Users\Maximilian\Desktop\Conformers\converted_pdb\conformers_pdb\Licochalcone A_conf_1.pdb
REMARK  11 active torsions:
REMARK  status: ('A' for Active; 'I' for Inactive)
REMARK    1  A    between atoms: C6_1  and  C5_21
REMARK    2  A    between atoms: C11_3  and  O1_26
REMARK    3  A    between atoms: C12_4  and  C15_7
REMARK    4  A    between atoms: C14_6  and  O2_19
REMARK    5  A    between atoms: C17_8  and  C18_9
REMARK    6  A    between atoms: C18_9  and  C20_11
REMARK    7  A    between atoms: C25_14  and  O4_17
REMARK    8  A    between atoms: O2_19  and  C19_20
REMARK    9  A    between atoms: C5_21  and  C8_22
REMARK   10  A    between atoms: C5_21  and  C7_23
REMARK   11  A    between atoms: C5_21  and  C9_24
REMARK                            x       y       z     vdW  Elec       q    Type
REMARK                         _______ _______ _______ _____ _____    ______ ____
ROOT
ATOM      1  C6  UNK     0      -2.651   0.453  -0.106  0.00  0.00    +0.000 A 
ATOM      2  C10 UNK     0      -1.462  -0.131   0.387  0.00  0.00    +0.000 A 
ATOM      3  C11 UNK     0      -2.530   1.559  -0.984  0.00  0.00    +0.000 A 
ATOM      4  C12 UNK     0      -0.193   0.321  -0.022  0.00  0.00    +0.000 A 
ATOM      5  C13 UNK     0      -1.267   2.020  -1.376  0.00  0.00    +0.000 A 
ATOM      6  C14 UNK     0      -0.095   1.410  -0.904  0.00  0.00    +0.000 A 
ENDROOT
BRANCH   1   7
ATOM      7  C5  UNK     0      -4.046  -0.038   0.351  0.00  0.00    +0.000 C 
ATOM      8  C8  UNK     0      -4.639   1.003   1.323  0.00  0.00    +0.000 C 
ATOM      9  C7  UNK     0      -4.013  -1.401   1.089  0.00  0.00    +0.000 C 
BRANCH   7  10
ATOM     10  C9  UNK     0      -4.974  -0.198  -0.847  0.00  0.00    +0.000 C 
ATOM     11  C16 UNK     0      -4.674  -0.984  -1.889  0.00  0.00    +0.000 C 
ENDBRANCH   7  10
ENDBRANCH   1   7
BRANCH   4  12
ATOM     12  C15 UNK     0       1.049  -0.304   0.499  0.00  0.00    +0.000 C 
ATOM     13  C17 UNK     0       1.143  -1.606   0.806  0.00  0.00    +0.000 C 
BRANCH  13  14
ATOM     14  C18 UNK     0       2.387  -2.219   1.316  0.00  0.00    +0.000 C 
ATOM     15  O3  UNK     0       2.287  -3.241   2.047  0.00  0.00    +0.000 OA
BRANCH  14  16
ATOM     16  C20 UNK     0       3.737  -1.700   0.990  0.00  0.00    +0.000 A 
ATOM     17  C21 UNK     0       4.766  -1.775   1.945  0.00  0.00    +0.000 A 
ATOM     18  C23 UNK     0       6.048  -1.305   1.643  0.00  0.00    +0.000 A 
ATOM     19  C25 UNK     0       6.322  -0.768   0.382  0.00  0.00    +0.000 A 
ATOM     20  C24 UNK     0       5.308  -0.706  -0.582  0.00  0.00    +0.000 A 
ATOM     21  C22 UNK     0       4.025  -1.176  -0.283  0.00  0.00    +0.000 A 
BRANCH  19  22
ATOM     22  O4  UNK     0       7.603  -0.302   0.096  0.00  0.00    +0.000 OA
ATOM     23  H47 UNK     0       7.834   0.092  -0.809  0.00  0.00    +0.000 HD
ENDBRANCH  19  22
ENDBRANCH  14  16
ENDBRANCH  13  14
ENDBRANCH   4  12
BRANCH   6  24
ATOM     24  O2  UNK     0       1.179   1.855  -1.298  0.00  0.00    +0.000 OA
ATOM     25  C19 UNK     0       1.420   2.939  -2.189  0.00  0.00    +0.000 C 
ENDBRANCH   6  24
BRANCH   3  26
ATOM     26  O1  UNK     0      -3.665   2.210  -1.468  0.00  0.00    +0.000 OA
ATOM     27  H38 UNK     0      -3.601   3.004  -2.095  0.00  0.00    +0.000 HD
ENDBRANCH   3  26
TORSDOF 8
