REMARK  Name = C:\Users\Maximilian\Desktop\Conformers\converted_pdb\conformers_pdb\Licochalcone A_conf_6.pdb
REMARK  11 active torsions:
REMARK  status: ('A' for Active; 'I' for Inactive)
REMARK    1  A    between atoms: C6_1  and  C5_21
REMARK    2  A    between atoms: C11_3  and  O1_26
REMARK    3  A    between atoms: C12_4  and  C15_7
REMARK    4  A    between atoms: C14_6  and  O2_19
REMARK    5  A    between atoms: C17_8  and  C18_9
REMARK    6  A    between atoms: C18_9  and  C20_11
REMARK    7  A    between atoms: C25_14  and  O4_17
REMARK    8  A    between atoms: O2_19  and  C19_20
REMARK    9  A    between atoms: C5_21  and  C8_22
REMARK   10  A    between atoms: C5_21  and  C7_23
REMARK   11  A    between atoms: C5_21  and  C9_24
REMARK                            x       y       z     vdW  Elec       q    Type
REMARK                         _______ _______ _______ _____ _____    ______ ____
ROOT
ATOM      1  C6  UNK     0      -2.666   0.123  -0.029  0.00  0.00    +0.000 A 
ATOM      2  C10 UNK     0      -1.722   0.691   0.862  0.00  0.00    +0.000 A 
ATOM      3  C11 UNK     0      -2.299  -1.074  -0.702  0.00  0.00    +0.000 A 
ATOM      4  C12 UNK     0      -0.462   0.113   1.063  0.00  0.00    +0.000 A 
ATOM      5  C13 UNK     0      -1.054  -1.671  -0.467  0.00  0.00    +0.000 A 
ATOM      6  C14 UNK     0      -0.136  -1.100   0.429  0.00  0.00    +0.000 A 
ENDROOT
BRANCH   1   7
ATOM      7  C5  UNK     0      -4.067   0.747  -0.248  0.00  0.00    +0.000 C 
ATOM      8  C8  UNK     0      -4.242   2.110   0.470  0.00  0.00    +0.000 C 
ATOM      9  C7  UNK     0      -5.128  -0.229   0.318  0.00  0.00    +0.000 C 
BRANCH   7  10
ATOM     10  C9  UNK     0      -4.283   0.983  -1.744  0.00  0.00    +0.000 C 
ATOM     11  C16 UNK     0      -5.460   1.350  -2.273  0.00  0.00    +0.000 C 
ENDBRANCH   7  10
ENDBRANCH   1   7
BRANCH   4  12
ATOM     12  C15 UNK     0       0.476   0.776   2.001  0.00  0.00    +0.000 C 
ATOM     13  C17 UNK     0       1.755   1.074   1.722  0.00  0.00    +0.000 C 
BRANCH  13  14
ATOM     14  C18 UNK     0       2.389   0.901   0.393  0.00  0.00    +0.000 C 
ATOM     15  O3  UNK     0       1.694   1.067  -0.649  0.00  0.00    +0.000 OA
BRANCH  14  16
ATOM     16  C20 UNK     0       3.830   0.564   0.261  0.00  0.00    +0.000 A 
ATOM     17  C21 UNK     0       4.470   0.681  -0.991  0.00  0.00    +0.000 A 
ATOM     18  C23 UNK     0       5.816   0.338  -1.137  0.00  0.00    +0.000 A 
ATOM     19  C25 UNK     0       6.546  -0.130  -0.034  0.00  0.00    +0.000 A 
ATOM     20  C24 UNK     0       5.922  -0.250   1.212  0.00  0.00    +0.000 A 
ATOM     21  C22 UNK     0       4.574   0.086   1.362  0.00  0.00    +0.000 A 
BRANCH  19  22
ATOM     22  O4  UNK     0       7.887  -0.484  -0.168  0.00  0.00    +0.000 OA
ATOM     23  H47 UNK     0       8.359  -0.446  -1.063  0.00  0.00    +0.000 HD
ENDBRANCH  19  22
ENDBRANCH  14  16
ENDBRANCH  13  14
ENDBRANCH   4  12
BRANCH   6  24
ATOM     24  O2  UNK     0       1.093  -1.715   0.719  0.00  0.00    +0.000 OA
ATOM     25  C19 UNK     0       1.580  -2.896   0.085  0.00  0.00    +0.000 C 
ENDBRANCH   6  24
BRANCH   3  26
ATOM     26  O1  UNK     0      -3.173  -1.677  -1.609  0.00  0.00    +0.000 OA
ATOM     27  H38 UNK     0      -2.930  -2.527  -2.104  0.00  0.00    +0.000 HD
ENDBRANCH   3  26
TORSDOF 8
