REMARK  Name = C:\Users\Maximilian\Desktop\Conformers\converted_pdb\conformers_pdb\Licochalcone A_conf_15.pdb
REMARK  11 active torsions:
REMARK  status: ('A' for Active; 'I' for Inactive)
REMARK    1  A    between atoms: C6_1  and  C5_21
REMARK    2  A    between atoms: C11_3  and  O1_26
REMARK    3  A    between atoms: C12_4  and  C15_7
REMARK    4  A    between atoms: C14_6  and  O2_19
REMARK    5  A    between atoms: C17_8  and  C18_9
REMARK    6  A    between atoms: C18_9  and  C20_11
REMARK    7  A    between atoms: C25_14  and  O4_17
REMARK    8  A    between atoms: O2_19  and  C19_20
REMARK    9  A    between atoms: C5_21  and  C8_22
REMARK   10  A    between atoms: C5_21  and  C7_23
REMARK   11  A    between atoms: C5_21  and  C9_24
REMARK                            x       y       z     vdW  Elec       q    Type
REMARK                         _______ _______ _______ _____ _____    ______ ____
ROOT
ATOM      1  C6  UNK     0      -2.726  -0.083   0.123  0.00  0.00    +0.000 A 
ATOM      2  C10 UNK     0      -1.453   0.470  -0.156  0.00  0.00    +0.000 A 
ATOM      3  C11 UNK     0      -2.764  -1.383   0.692  0.00  0.00    +0.000 A 
ATOM      4  C12 UNK     0      -0.268  -0.268   0.017  0.00  0.00    +0.000 A 
ATOM      5  C13 UNK     0      -1.586  -2.126   0.840  0.00  0.00    +0.000 A 
ATOM      6  C14 UNK     0      -0.338  -1.586   0.494  0.00  0.00    +0.000 A 
ENDROOT
BRANCH   1   7
ATOM      7  C5  UNK     0      -3.993   0.793  -0.060  0.00  0.00    +0.000 C 
ATOM      8  C8  UNK     0      -4.237   1.554   1.257  0.00  0.00    +0.000 C 
ATOM      9  C7  UNK     0      -5.266  -0.023  -0.407  0.00  0.00    +0.000 C 
BRANCH   7  10
ATOM     10  C9  UNK     0      -3.805   1.812  -1.184  0.00  0.00    +0.000 C 
ATOM     11  C16 UNK     0      -3.567   1.448  -2.451  0.00  0.00    +0.000 C 
ENDBRANCH   7  10
ENDBRANCH   1   7
BRANCH   4  12
ATOM     12  C15 UNK     0       1.055   0.310  -0.328  0.00  0.00    +0.000 C 
ATOM     13  C17 UNK     0       1.348   1.612  -0.191  0.00  0.00    +0.000 C 
BRANCH  13  14
ATOM     14  C18 UNK     0       2.672   2.173  -0.532  0.00  0.00    +0.000 C 
ATOM     15  O3  UNK     0       2.730   3.383  -0.878  0.00  0.00    +0.000 OA
BRANCH  14  16
ATOM     16  C20 UNK     0       3.926   1.385  -0.466  0.00  0.00    +0.000 A 
ATOM     17  C21 UNK     0       4.955   1.626  -1.393  0.00  0.00    +0.000 A 
ATOM     18  C23 UNK     0       6.149   0.901  -1.329  0.00  0.00    +0.000 A 
ATOM     19  C25 UNK     0       6.337  -0.061  -0.333  0.00  0.00    +0.000 A 
ATOM     20  C24 UNK     0       5.324  -0.294   0.607  0.00  0.00    +0.000 A 
ATOM     21  C22 UNK     0       4.129   0.429   0.546  0.00  0.00    +0.000 A 
BRANCH  19  22
ATOM     22  O4  UNK     0       7.531  -0.776  -0.282  0.00  0.00    +0.000 OA
ATOM     23  H47 UNK     0       7.698  -1.479   0.428  0.00  0.00    +0.000 HD
ENDBRANCH  19  22
ENDBRANCH  14  16
ENDBRANCH  13  14
ENDBRANCH   4  12
BRANCH   6  24
ATOM     24  O2  UNK     0       0.851  -2.323   0.638  0.00  0.00    +0.000 OA
ATOM     25  C19 UNK     0       0.924  -3.661   1.118  0.00  0.00    +0.000 C 
ENDBRANCH   6  24
BRANCH   3  26
ATOM     26  O1  UNK     0      -3.961  -1.945   1.132  0.00  0.00    +0.000 OA
ATOM     27  H38 UNK     0      -4.000  -2.869   1.546  0.00  0.00    +0.000 HD
ENDBRANCH   3  26
TORSDOF 8
