REMARK  Name = C:\Users\Maximilian\Desktop\Conformers\converted_pdb\conformers_pdb\Licochalcone A_conf_2.pdb
REMARK  11 active torsions:
REMARK  status: ('A' for Active; 'I' for Inactive)
REMARK    1  A    between atoms: C6_1  and  C5_21
REMARK    2  A    between atoms: C11_3  and  O1_26
REMARK    3  A    between atoms: C12_4  and  C15_7
REMARK    4  A    between atoms: C14_6  and  O2_19
REMARK    5  A    between atoms: C17_8  and  C18_9
REMARK    6  A    between atoms: C18_9  and  C20_11
REMARK    7  A    between atoms: C25_14  and  O4_17
REMARK    8  A    between atoms: O2_19  and  C19_20
REMARK    9  A    between atoms: C5_21  and  C8_22
REMARK   10  A    between atoms: C5_21  and  C7_23
REMARK   11  A    between atoms: C5_21  and  C9_24
REMARK                            x       y       z     vdW  Elec       q    Type
REMARK                         _______ _______ _______ _____ _____    ______ ____
ROOT
ATOM      1  C6  UNK     0      -2.756  -0.235  -0.083  0.00  0.00    +0.000 A 
ATOM      2  C10 UNK     0      -1.869  -0.175  -1.183  0.00  0.00    +0.000 A 
ATOM      3  C11 UNK     0      -2.275  -0.807   1.123  0.00  0.00    +0.000 A 
ATOM      4  C12 UNK     0      -0.543  -0.613  -1.079  0.00  0.00    +0.000 A 
ATOM      5  C13 UNK     0      -0.960  -1.281   1.211  0.00  0.00    +0.000 A 
ATOM      6  C14 UNK     0      -0.089  -1.203   0.114  0.00  0.00    +0.000 A 
ENDROOT
BRANCH   1   7
ATOM      7  C5  UNK     0      -4.222   0.251  -0.192  0.00  0.00    +0.000 C 
ATOM      8  C8  UNK     0      -5.153  -0.980  -0.175  0.00  0.00    +0.000 C 
ATOM      9  C7  UNK     0      -4.518   1.039  -1.493  0.00  0.00    +0.000 C 
BRANCH   7  10
ATOM     10  C9  UNK     0      -4.567   1.163   0.978  0.00  0.00    +0.000 C 
ATOM     11  C16 UNK     0      -3.867   2.270   1.257  0.00  0.00    +0.000 C 
ENDBRANCH   7  10
ENDBRANCH   1   7
BRANCH   4  12
ATOM     12  C15 UNK     0       0.337  -0.496  -2.263  0.00  0.00    +0.000 C 
ATOM     13  C17 UNK     0       1.551   0.073  -2.252  0.00  0.00    +0.000 C 
BRANCH  13  14
ATOM     14  C18 UNK     0       2.133   0.785  -1.093  0.00  0.00    +0.000 C 
ATOM     15  O3  UNK     0       1.377   1.466  -0.346  0.00  0.00    +0.000 OA
BRANCH  14  16
ATOM     16  C20 UNK     0       3.589   0.731  -0.806  0.00  0.00    +0.000 A 
ATOM     17  C21 UNK     0       4.411  -0.244  -1.402  0.00  0.00    +0.000 A 
ATOM     18  C23 UNK     0       5.774  -0.304  -1.099  0.00  0.00    +0.000 A 
ATOM     19  C25 UNK     0       6.336   0.600  -0.195  0.00  0.00    +0.000 A 
ATOM     20  C24 UNK     0       5.527   1.564   0.412  0.00  0.00    +0.000 A 
ATOM     21  C22 UNK     0       4.163   1.633   0.110  0.00  0.00    +0.000 A 
BRANCH  19  22
ATOM     22  O4  UNK     0       7.696   0.529   0.095  0.00  0.00    +0.000 OA
ATOM     23  H47 UNK     0       8.128   1.153   0.776  0.00  0.00    +0.000 HD
ENDBRANCH  19  22
ENDBRANCH  14  16
ENDBRANCH  13  14
ENDBRANCH   4  12
BRANCH   6  24
ATOM     24  O2  UNK     0       1.219  -1.713   0.169  0.00  0.00    +0.000 OA
ATOM     25  C19 UNK     0       1.831  -2.256   1.330  0.00  0.00    +0.000 C 
ENDBRANCH   6  24
BRANCH   3  26
ATOM     26  O1  UNK     0      -3.107  -0.910   2.240  0.00  0.00    +0.000 OA
ATOM     27  H38 UNK     0      -2.784  -1.312   3.113  0.00  0.00    +0.000 HD
ENDBRANCH   3  26
TORSDOF 8
