REMARK  Name = C:\Users\Maximilian\Desktop\Conformers\converted_pdb\conformers_pdb\Lipid IVa_conf_55.pdb
REMARK  5 active torsions:
REMARK  status: ('A' for Active; 'I' for Inactive)
REMARK    1  A    between atoms: N3_1  and  C11_10
REMARK    2  A    between atoms: C16_5  and  N2_19
REMARK    3  A    between atoms: C12_12  and  C17_16
REMARK    4  A    between atoms: C17_16  and  O1_17
REMARK    5  A    between atoms: N2_19  and  C8_21
REMARK                            x       y       z     vdW  Elec       q    Type
REMARK                         _______ _______ _______ _____ _____    ______ ____
ROOT
ATOM      1  N3  UNK     0       0.588   1.230   0.253  0.00  0.00    +0.000 N 
ATOM      2  N4  UNK     0      -1.436   2.231   0.106  0.00  0.00    +0.000 NA
ATOM      3  N5  UNK     0      -2.583  -1.118   1.362  0.00  0.00    +0.000 NA
ATOM      4  N6  UNK     0      -0.221  -0.991   1.027  0.00  0.00    +0.000 N 
ATOM      5  C16 UNK     0      -2.868   0.229   0.816  0.00  0.00    +0.000 C 
ATOM      6  C19 UNK     0      -0.376   0.353   0.584  0.00  0.00    +0.000 A 
ATOM      7  C20 UNK     0      -1.586   0.951   0.501  0.00  0.00    +0.000 A 
ATOM      8  C21 UNK     0      -0.093   2.363  -0.041  0.00  0.00    +0.000 A 
ATOM      9  C22 UNK     0      -1.406  -1.688   1.445  0.00  0.00    +0.000 C 
ATOM     10  N7  UNK     0      -1.300  -3.007   1.978  0.00  0.00    +0.000 N 
ATOM     11  H41 UNK     0      -2.152  -3.522   2.292  0.00  0.00    +0.000 HD
ATOM     12  H42 UNK     0      -0.369  -3.472   2.058  0.00  0.00    +0.000 HD
ATOM     13  H1  UNL     1       0.716  -1.446   1.089  0.00  0.00    +0.000 HD
ENDROOT
BRANCH   1  14
ATOM     14  C11 UNK     0       2.040   1.036   0.179  0.00  0.00    +0.000 C 
ATOM     15  C13 UNK     0       2.398   0.119  -1.006  0.00  0.00    +0.000 C 
ATOM     16  C12 UNK     0       3.873  -0.307  -0.931  0.00  0.00    +0.000 C 
ATOM     17  C14 UNK     0       4.117  -1.087   0.375  0.00  0.00    +0.000 C 
ATOM     18  C18 UNK     0       3.572  -0.367   1.583  0.00  0.00    +0.000 C 
ATOM     19  C15 UNK     0       2.574   0.528   1.501  0.00  0.00    +0.000 C 
BRANCH  16  20
ATOM     20  C17 UNK     0       4.255  -1.150  -2.162  0.00  0.00    +0.000 C 
BRANCH  20  21
ATOM     21  O1  UNK     0       5.614  -1.493  -2.129  0.00  0.00    +0.000 OA
ATOM     22  H40 UNK     0       6.120  -0.672  -2.364  0.00  0.00    +0.000 HD
ENDBRANCH  20  21
ENDBRANCH  16  20
ENDBRANCH   1  14
BRANCH   5  23
ATOM     23  N2  UNK     0      -3.680   0.097  -0.404  0.00  0.00    +0.000 NA
ATOM     24  H32 UNK     0      -4.322  -0.724  -0.293  0.00  0.00    +0.000 HD
BRANCH  23  25
ATOM     25  C8  UNK     0      -4.455   1.328  -0.648  0.00  0.00    +0.000 C 
ATOM     26  C9  UNK     0      -5.853   1.354  -0.045  0.00  0.00    +0.000 C 
ATOM     27  C10 UNK     0      -5.672   1.120  -1.538  0.00  0.00    +0.000 C 
ENDBRANCH  23  25
ENDBRANCH   5  23
TORSDOF 5
