REMARK  Name = C:\Users\Maximilian\Desktop\Conformers\converted_pdb\conformers_pdb\Lipid IVa_conf_41.pdb
REMARK  5 active torsions:
REMARK  status: ('A' for Active; 'I' for Inactive)
REMARK    1  A    between atoms: N3_1  and  C11_10
REMARK    2  A    between atoms: C16_5  and  N2_19
REMARK    3  A    between atoms: C12_12  and  C17_16
REMARK    4  A    between atoms: C17_16  and  O1_17
REMARK    5  A    between atoms: N2_19  and  C8_21
REMARK                            x       y       z     vdW  Elec       q    Type
REMARK                         _______ _______ _______ _____ _____    ______ ____
ROOT
ATOM      1  N3  UNK     0      -0.434  -0.188   0.041  0.00  0.00    +0.000 N 
ATOM      2  N4  UNK     0       0.892  -0.158   1.881  0.00  0.00    +0.000 NA
ATOM      3  N5  UNK     0       2.964  -2.482  -0.230  0.00  0.00    +0.000 NA
ATOM      4  N6  UNK     0       0.965  -1.739  -1.312  0.00  0.00    +0.000 N 
ATOM      5  C16 UNK     0       2.752  -1.664   0.986  0.00  0.00    +0.000 C 
ATOM      6  C19 UNK     0       0.663  -0.932  -0.177  0.00  0.00    +0.000 A 
ATOM      7  C20 UNK     0       1.459  -0.905   0.916  0.00  0.00    +0.000 A 
ATOM      8  C21 UNK     0      -0.267   0.260   1.313  0.00  0.00    +0.000 A 
ATOM      9  C22 UNK     0       2.171  -2.522  -1.272  0.00  0.00    +0.000 C 
ATOM     10  N7  UNK     0       2.509  -3.357  -2.379  0.00  0.00    +0.000 N 
ATOM     11  H41 UNK     0       3.382  -3.930  -2.364  0.00  0.00    +0.000 HD
ATOM     12  H42 UNK     0       1.889  -3.402  -3.217  0.00  0.00    +0.000 HD
ATOM     13  H1  UNL     1       0.329  -1.789  -2.137  0.00  0.00    +0.000 HD
ENDROOT
BRANCH   1  14
ATOM     14  C11 UNK     0      -1.610  -0.027  -0.826  0.00  0.00    +0.000 C 
ATOM     15  C13 UNK     0      -2.083   1.461  -0.881  0.00  0.00    +0.000 C 
ATOM     16  C12 UNK     0      -3.531   1.712  -0.396  0.00  0.00    +0.000 C 
ATOM     17  C14 UNK     0      -4.462   0.610  -0.929  0.00  0.00    +0.000 C 
ATOM     18  C18 UNK     0      -3.985  -0.743  -0.492  0.00  0.00    +0.000 C 
ATOM     19  C15 UNK     0      -2.677  -1.023  -0.421  0.00  0.00    +0.000 C 
BRANCH  16  20
ATOM     20  C17 UNK     0      -3.613   1.852   1.139  0.00  0.00    +0.000 C 
BRANCH  20  21
ATOM     21  O1  UNK     0      -4.907   2.217   1.537  0.00  0.00    +0.000 OA
ATOM     22  H40 UNK     0      -5.013   3.179   1.315  0.00  0.00    +0.000 HD
ENDBRANCH  20  21
ENDBRANCH  16  20
ENDBRANCH   1  14
BRANCH   5  23
ATOM     23  N2  UNK     0       3.887  -0.754   1.211  0.00  0.00    +0.000 NA
ATOM     24  H32 UNK     0       4.747  -1.339   1.324  0.00  0.00    +0.000 HD
BRANCH  23  25
ATOM     25  C8  UNK     0       4.111   0.135   0.065  0.00  0.00    +0.000 C 
ATOM     26  C9  UNK     0       5.028   1.299   0.403  0.00  0.00    +0.000 C 
ATOM     27  C10 UNK     0       3.535   1.529   0.243  0.00  0.00    +0.000 C 
ENDBRANCH  23  25
ENDBRANCH   5  23
TORSDOF 5
