REMARK  Name = C:\Users\Maximilian\Desktop\Conformers\converted_pdb\conformers_pdb\Lipid IVa_conf_36.pdb
REMARK  5 active torsions:
REMARK  status: ('A' for Active; 'I' for Inactive)
REMARK    1  A    between atoms: N3_1  and  C11_10
REMARK    2  A    between atoms: C16_5  and  N2_19
REMARK    3  A    between atoms: C12_12  and  C17_16
REMARK    4  A    between atoms: C17_16  and  O1_17
REMARK    5  A    between atoms: N2_19  and  C8_21
REMARK                            x       y       z     vdW  Elec       q    Type
REMARK                         _______ _______ _______ _____ _____    ______ ____
ROOT
ATOM      1  N3  UNK     0      -0.556   0.282  -0.397  0.00  0.00    +0.000 N 
ATOM      2  N4  UNK     0       1.075  -0.368  -1.831  0.00  0.00    +0.000 NA
ATOM      3  N5  UNK     0       3.079  -0.469   1.350  0.00  0.00    +0.000 NA
ATOM      4  N6  UNK     0       0.798   0.159   1.688  0.00  0.00    +0.000 N 
ATOM      5  C16 UNK     0       2.944  -0.658  -0.114  0.00  0.00    +0.000 C 
ATOM      6  C19 UNK     0       0.577   0.047   0.284  0.00  0.00    +0.000 A 
ATOM      7  C20 UNK     0       1.554  -0.330  -0.572  0.00  0.00    +0.000 A 
ATOM      8  C21 UNK     0      -0.220   0.010  -1.685  0.00  0.00    +0.000 A 
ATOM      9  C22 UNK     0       2.125  -0.111   2.174  0.00  0.00    +0.000 C 
ATOM     10  N7  UNK     0       2.411   0.022   3.566  0.00  0.00    +0.000 N 
ATOM     11  H41 UNK     0       3.379  -0.137   3.927  0.00  0.00    +0.000 HD
ATOM     12  H42 UNK     0       1.655   0.280   4.237  0.00  0.00    +0.000 HD
ATOM     13  H1  UNL     1       0.036   0.429   2.348  0.00  0.00    +0.000 HD
ENDROOT
BRANCH   1  14
ATOM     14  C11 UNK     0      -1.872   0.680   0.113  0.00  0.00    +0.000 C 
ATOM     15  C13 UNK     0      -2.841  -0.514   0.060  0.00  0.00    +0.000 C 
ATOM     16  C12 UNK     0      -4.273  -0.055   0.383  0.00  0.00    +0.000 C 
ATOM     17  C14 UNK     0      -4.732   0.980  -0.666  0.00  0.00    +0.000 C 
ATOM     18  C18 UNK     0      -3.699   2.052  -0.917  0.00  0.00    +0.000 C 
ATOM     19  C15 UNK     0      -2.393   1.876  -0.655  0.00  0.00    +0.000 C 
BRANCH  16  20
ATOM     20  C17 UNK     0      -5.230  -1.260   0.433  0.00  0.00    +0.000 C 
BRANCH  20  21
ATOM     21  O1  UNK     0      -6.490  -0.874   0.915  0.00  0.00    +0.000 OA
ATOM     22  H40 UNK     0      -7.006  -0.539   0.134  0.00  0.00    +0.000 HD
ENDBRANCH  20  21
ENDBRANCH  16  20
ENDBRANCH   1  14
BRANCH   5  23
ATOM     23  N2  UNK     0       3.902   0.192  -0.831  0.00  0.00    +0.000 NA
ATOM     24  H32 UNK     0       3.825   1.172  -0.466  0.00  0.00    +0.000 HD
BRANCH  23  25
ATOM     25  C8  UNK     0       5.271  -0.265  -0.585  0.00  0.00    +0.000 C 
ATOM     26  C9  UNK     0       6.230   0.157  -1.684  0.00  0.00    +0.000 C 
ATOM     27  C10 UNK     0       5.769  -1.289  -1.592  0.00  0.00    +0.000 C 
ENDBRANCH  23  25
ENDBRANCH   5  23
TORSDOF 5
