REMARK  Name = C:\Users\Maximilian\Desktop\Conformers\converted_pdb\conformers_pdb\Lipid IVa_conf_8.pdb
REMARK  5 active torsions:
REMARK  status: ('A' for Active; 'I' for Inactive)
REMARK    1  A    between atoms: N3_1  and  C11_10
REMARK    2  A    between atoms: C16_5  and  N2_19
REMARK    3  A    between atoms: C12_12  and  C17_16
REMARK    4  A    between atoms: C17_16  and  O1_17
REMARK    5  A    between atoms: N2_19  and  C8_21
REMARK                            x       y       z     vdW  Elec       q    Type
REMARK                         _______ _______ _______ _____ _____    ______ ____
ROOT
ATOM      1  N3  UNK     0      -0.183  -0.362   0.466  0.00  0.00    +0.000 N 
ATOM      2  N4  UNK     0       1.411  -0.790   2.021  0.00  0.00    +0.000 NA
ATOM      3  N5  UNK     0       2.922   2.324   0.544  0.00  0.00    +0.000 NA
ATOM      4  N6  UNK     0       0.847   1.699  -0.468  0.00  0.00    +0.000 N 
ATOM      5  C16 UNK     0       2.973   1.151   1.447  0.00  0.00    +0.000 C 
ATOM      6  C19 UNK     0       0.800   0.547   0.368  0.00  0.00    +0.000 A 
ATOM      7  C20 UNK     0       1.757   0.285   1.286  0.00  0.00    +0.000 A 
ATOM      8  C21 UNK     0       0.215  -1.156   1.494  0.00  0.00    +0.000 A 
ATOM      9  C22 UNK     0       1.974   2.582  -0.323  0.00  0.00    +0.000 C 
ATOM     10  N7  UNK     0       2.062   3.755  -1.131  0.00  0.00    +0.000 N 
ATOM     11  H41 UNK     0       1.316   3.976  -1.827  0.00  0.00    +0.000 HD
ATOM     12  H42 UNK     0       2.874   4.404  -1.036  0.00  0.00    +0.000 HD
ATOM     13  H1  UNL     1       0.085   1.916  -1.147  0.00  0.00    +0.000 HD
ENDROOT
BRANCH   1  14
ATOM     14  C11 UNK     0      -1.467  -0.390  -0.245  0.00  0.00    +0.000 C 
ATOM     15  C13 UNK     0      -2.572   0.236   0.627  0.00  0.00    +0.000 C 
ATOM     16  C12 UNK     0      -3.997   0.107  -0.002  0.00  0.00    +0.000 C 
ATOM     17  C14 UNK     0      -4.076  -0.904  -1.182  0.00  0.00    +0.000 C 
ATOM     18  C18 UNK     0      -3.109  -2.046  -1.020  0.00  0.00    +0.000 C 
ATOM     19  C15 UNK     0      -1.859  -1.802  -0.610  0.00  0.00    +0.000 C 
BRANCH  16  20
ATOM     20  C17 UNK     0      -5.052  -0.207   1.073  0.00  0.00    +0.000 C 
BRANCH  20  21
ATOM     21  O1  UNK     0      -4.848  -1.488   1.604  0.00  0.00    +0.000 OA
ATOM     22  H40 UNK     0      -5.556  -1.619   2.287  0.00  0.00    +0.000 HD
ENDBRANCH  20  21
ENDBRANCH  16  20
ENDBRANCH   1  14
BRANCH   5  23
ATOM     23  N2  UNK     0       4.205   0.376   1.229  0.00  0.00    +0.000 NA
ATOM     24  H32 UNK     0       5.017   1.007   1.424  0.00  0.00    +0.000 HD
BRANCH  23  25
ATOM     25  C8  UNK     0       4.329  -0.078  -0.161  0.00  0.00    +0.000 C 
ATOM     26  C9  UNK     0       3.913  -1.523  -0.379  0.00  0.00    +0.000 C 
ATOM     27  C10 UNK     0       5.387  -1.155  -0.329  0.00  0.00    +0.000 C 
ENDBRANCH  23  25
ENDBRANCH   5  23
TORSDOF 5
