REMARK  Name = C:\Users\Maximilian\Desktop\Conformers\converted_pdb\conformers_pdb\Lipid IVa_conf_74.pdb
REMARK  5 active torsions:
REMARK  status: ('A' for Active; 'I' for Inactive)
REMARK    1  A    between atoms: N3_1  and  C11_10
REMARK    2  A    between atoms: C16_5  and  N2_19
REMARK    3  A    between atoms: C12_12  and  C17_16
REMARK    4  A    between atoms: C17_16  and  O1_17
REMARK    5  A    between atoms: N2_19  and  C8_21
REMARK                            x       y       z     vdW  Elec       q    Type
REMARK                         _______ _______ _______ _____ _____    ______ ____
ROOT
ATOM      1  N3  UNK     0       0.712  -0.129  -0.084  0.00  0.00    +0.000 N 
ATOM      2  N4  UNK     0      -1.074  -1.187  -1.009  0.00  0.00    +0.000 NA
ATOM      3  N5  UNK     0      -2.847   0.403   1.903  0.00  0.00    +0.000 NA
ATOM      4  N6  UNK     0      -0.499   0.864   1.857  0.00  0.00    +0.000 N 
ATOM      5  C16 UNK     0      -2.824  -0.469   0.704  0.00  0.00    +0.000 C 
ATOM      6  C19 UNK     0      -0.400   0.145   0.628  0.00  0.00    +0.000 A 
ATOM      7  C20 UNK     0      -1.469  -0.466   0.063  0.00  0.00    +0.000 A 
ATOM      8  C21 UNK     0       0.264  -0.957  -1.067  0.00  0.00    +0.000 A 
ATOM      9  C22 UNK     0      -1.804   0.991   2.445  0.00  0.00    +0.000 C 
ATOM     10  N7  UNK     0      -1.978   1.772   3.630  0.00  0.00    +0.000 N 
ATOM     11  H41 UNK     0      -1.147   2.156   4.130  0.00  0.00    +0.000 HD
ATOM     12  H42 UNK     0      -2.929   1.949   4.018  0.00  0.00    +0.000 HD
ATOM     13  H1  UNL     1       0.336   1.283   2.322  0.00  0.00    +0.000 HD
ENDROOT
BRANCH   1  14
ATOM     14  C11 UNK     0       2.114   0.166   0.253  0.00  0.00    +0.000 C 
ATOM     15  C13 UNK     0       2.902   0.659  -1.006  0.00  0.00    +0.000 C 
ATOM     16  C12 UNK     0       4.256  -0.056  -1.234  0.00  0.00    +0.000 C 
ATOM     17  C14 UNK     0       4.072  -1.574  -1.058  0.00  0.00    +0.000 C 
ATOM     18  C18 UNK     0       3.572  -1.869   0.327  0.00  0.00    +0.000 C 
ATOM     19  C15 UNK     0       2.706  -1.050   0.937  0.00  0.00    +0.000 C 
BRANCH  16  20
ATOM     20  C17 UNK     0       4.820   0.280  -2.633  0.00  0.00    +0.000 C 
BRANCH  20  21
ATOM     21  O1  UNK     0       6.064  -0.333  -2.836  0.00  0.00    +0.000 OA
ATOM     22  H40 UNK     0       6.734   0.196  -2.323  0.00  0.00    +0.000 HD
ENDBRANCH  20  21
ENDBRANCH  16  20
ENDBRANCH   1  14
BRANCH   5  23
ATOM     23  N2  UNK     0      -3.825  -0.022  -0.272  0.00  0.00    +0.000 NA
ATOM     24  H32 UNK     0      -3.719   1.013  -0.406  0.00  0.00    +0.000 HD
BRANCH  23  25
ATOM     25  C8  UNK     0      -5.177  -0.366   0.194  0.00  0.00    +0.000 C 
ATOM     26  C9  UNK     0      -6.273   0.359  -0.577  0.00  0.00    +0.000 C 
ATOM     27  C10 UNK     0      -5.961   0.758   0.861  0.00  0.00    +0.000 C 
ENDBRANCH  23  25
ENDBRANCH   5  23
TORSDOF 5
