REMARK  Name = C:\Users\Maximilian\Desktop\Conformers\converted_pdb\conformers_pdb\Lipid IVa_conf_12.pdb
REMARK  5 active torsions:
REMARK  status: ('A' for Active; 'I' for Inactive)
REMARK    1  A    between atoms: N3_1  and  C11_10
REMARK    2  A    between atoms: C16_5  and  N2_19
REMARK    3  A    between atoms: C12_12  and  C17_16
REMARK    4  A    between atoms: C17_16  and  O1_17
REMARK    5  A    between atoms: N2_19  and  C8_21
REMARK                            x       y       z     vdW  Elec       q    Type
REMARK                         _______ _______ _______ _____ _____    ______ ____
ROOT
ATOM      1  N3  UNK     0       0.589   0.227  -0.590  0.00  0.00    +0.000 N 
ATOM      2  N4  UNK     0      -0.921   1.871  -0.983  0.00  0.00    +0.000 NA
ATOM      3  N5  UNK     0      -2.908  -0.094   1.528  0.00  0.00    +0.000 NA
ATOM      4  N6  UNK     0      -0.758  -1.033   1.076  0.00  0.00    +0.000 N 
ATOM      5  C16 UNK     0      -2.769   1.016   0.557  0.00  0.00    +0.000 C 
ATOM      6  C19 UNK     0      -0.529  -0.007   0.116  0.00  0.00    +0.000 A 
ATOM      7  C20 UNK     0      -1.435   0.968  -0.127  0.00  0.00    +0.000 A 
ATOM      8  C21 UNK     0       0.321   1.388  -1.241  0.00  0.00    +0.000 A 
ATOM      9  C22 UNK     0      -2.017  -1.022   1.771  0.00  0.00    +0.000 C 
ATOM     10  N7  UNK     0      -2.300  -2.031   2.739  0.00  0.00    +0.000 N 
ATOM     11  H41 UNK     0      -1.600  -2.777   2.945  0.00  0.00    +0.000 HD
ATOM     12  H42 UNK     0      -3.211  -2.034   3.250  0.00  0.00    +0.000 HD
ATOM     13  H1  UNL     1      -0.039  -1.759   1.287  0.00  0.00    +0.000 HD
ENDROOT
BRANCH   1  14
ATOM     14  C11 UNK     0       1.866  -0.497  -0.533  0.00  0.00    +0.000 C 
ATOM     15  C13 UNK     0       2.840   0.219   0.422  0.00  0.00    +0.000 C 
ATOM     16  C12 UNK     0       4.276  -0.397   0.412  0.00  0.00    +0.000 C 
ATOM     17  C14 UNK     0       4.530  -1.384  -0.763  0.00  0.00    +0.000 C 
ATOM     18  C18 UNK     0       3.770  -0.996  -2.003  0.00  0.00    +0.000 C 
ATOM     19  C15 UNK     0       2.495  -0.606  -1.902  0.00  0.00    +0.000 C 
BRANCH  16  20
ATOM     20  C17 UNK     0       5.356   0.703   0.469  0.00  0.00    +0.000 C 
BRANCH  20  21
ATOM     21  O1  UNK     0       5.323   1.510  -0.680  0.00  0.00    +0.000 OA
ATOM     22  H40 UNK     0       5.888   1.062  -1.363  0.00  0.00    +0.000 HD
ENDBRANCH  20  21
ENDBRANCH  16  20
ENDBRANCH   1  14
BRANCH   5  23
ATOM     23  N2  UNK     0      -3.833   0.946  -0.451  0.00  0.00    +0.000 NA
ATOM     24  H32 UNK     0      -3.823  -0.010  -0.882  0.00  0.00    +0.000 HD
BRANCH  23  25
ATOM     25  C8  UNK     0      -5.135   1.251   0.164  0.00  0.00    +0.000 C 
ATOM     26  C9  UNK     0      -5.999   0.047   0.519  0.00  0.00    +0.000 C 
ATOM     27  C10 UNK     0      -6.316   0.875  -0.718  0.00  0.00    +0.000 C 
ENDBRANCH  23  25
ENDBRANCH   5  23
TORSDOF 5
