REMARK  Name = C:\Users\Maximilian\Desktop\Conformers\converted_pdb\conformers_pdb\Lipid IVa_conf_38.pdb
REMARK  5 active torsions:
REMARK  status: ('A' for Active; 'I' for Inactive)
REMARK    1  A    between atoms: N3_1  and  C11_10
REMARK    2  A    between atoms: C16_5  and  N2_19
REMARK    3  A    between atoms: C12_12  and  C17_16
REMARK    4  A    between atoms: C17_16  and  O1_17
REMARK    5  A    between atoms: N2_19  and  C8_21
REMARK                            x       y       z     vdW  Elec       q    Type
REMARK                         _______ _______ _______ _____ _____    ______ ____
ROOT
ATOM      1  N3  UNK     0      -0.748  -1.241  -0.053  0.00  0.00    +0.000 N 
ATOM      2  N4  UNK     0       0.785  -1.960   1.455  0.00  0.00    +0.000 NA
ATOM      3  N5  UNK     0       3.151  -0.445  -1.043  0.00  0.00    +0.000 NA
ATOM      4  N6  UNK     0       0.852  -0.215  -1.653  0.00  0.00    +0.000 N 
ATOM      5  C16 UNK     0       2.875  -1.149   0.231  0.00  0.00    +0.000 C 
ATOM      6  C19 UNK     0       0.488  -0.946  -0.487  0.00  0.00    +0.000 A 
ATOM      7  C20 UNK     0       1.404  -1.387   0.405  0.00  0.00    +0.000 A 
ATOM      8  C21 UNK     0      -0.532  -1.847   1.142  0.00  0.00    +0.000 A 
ATOM      9  C22 UNK     0       2.255  -0.009  -1.893  0.00  0.00    +0.000 C 
ATOM     10  N7  UNK     0       2.679   0.671  -3.073  0.00  0.00    +0.000 N 
ATOM     11  H41 UNK     0       3.695   0.827  -3.259  0.00  0.00    +0.000 HD
ATOM     12  H42 UNK     0       1.978   1.022  -3.762  0.00  0.00    +0.000 HD
ATOM     13  H1  UNL     1       0.136   0.155  -2.315  0.00  0.00    +0.000 HD
ENDROOT
BRANCH   1  14
ATOM     14  C11 UNK     0      -2.032  -0.840  -0.638  0.00  0.00    +0.000 C 
ATOM     15  C13 UNK     0      -2.472   0.513  -0.051  0.00  0.00    +0.000 C 
ATOM     16  C12 UNK     0      -3.922   0.829  -0.458  0.00  0.00    +0.000 C 
ATOM     17  C14 UNK     0      -4.860  -0.258   0.100  0.00  0.00    +0.000 C 
ATOM     18  C18 UNK     0      -4.365  -1.651  -0.195  0.00  0.00    +0.000 C 
ATOM     19  C15 UNK     0      -3.072  -1.923  -0.439  0.00  0.00    +0.000 C 
BRANCH  16  20
ATOM     20  C17 UNK     0      -4.352   2.219   0.045  0.00  0.00    +0.000 C 
BRANCH  20  21
ATOM     21  O1  UNK     0      -3.573   3.226  -0.545  0.00  0.00    +0.000 OA
ATOM     22  H40 UNK     0      -3.891   3.320  -1.481  0.00  0.00    +0.000 HD
ENDBRANCH  20  21
ENDBRANCH  16  20
ENDBRANCH   1  14
BRANCH   5  23
ATOM     23  N2  UNK     0       3.375  -0.361   1.364  0.00  0.00    +0.000 NA
ATOM     24  H32 UNK     0       2.968   0.604   1.306  0.00  0.00    +0.000 HD
BRANCH  23  25
ATOM     25  C8  UNK     0       4.847  -0.331   1.349  0.00  0.00    +0.000 C 
ATOM     26  C9  UNK     0       5.434   0.726   2.273  0.00  0.00    +0.000 C 
ATOM     27  C10 UNK     0       5.479   0.926   0.765  0.00  0.00    +0.000 C 
ENDBRANCH  23  25
ENDBRANCH   5  23
TORSDOF 5
