REMARK  Name = C:\Users\Maximilian\Desktop\Conformers\converted_pdb\conformers_pdb\Lipid IVa_conf_5.pdb
REMARK  5 active torsions:
REMARK  status: ('A' for Active; 'I' for Inactive)
REMARK    1  A    between atoms: N3_1  and  C11_10
REMARK    2  A    between atoms: C16_5  and  N2_19
REMARK    3  A    between atoms: C12_12  and  C17_16
REMARK    4  A    between atoms: C17_16  and  O1_17
REMARK    5  A    between atoms: N2_19  and  C8_21
REMARK                            x       y       z     vdW  Elec       q    Type
REMARK                         _______ _______ _______ _____ _____    ______ ____
ROOT
ATOM      1  N3  UNK     0      -0.502  -0.518   0.746  0.00  0.00    +0.000 N 
ATOM      2  N4  UNK     0       1.111   0.406   2.043  0.00  0.00    +0.000 NA
ATOM      3  N5  UNK     0       2.700   1.014  -1.307  0.00  0.00    +0.000 NA
ATOM      4  N6  UNK     0       0.581  -0.083  -1.447  0.00  0.00    +0.000 N 
ATOM      5  C16 UNK     0       2.724   1.056   0.173  0.00  0.00    +0.000 C 
ATOM      6  C19 UNK     0       0.513  -0.098  -0.025  0.00  0.00    +0.000 A 
ATOM      7  C20 UNK     0       1.482   0.443   0.749  0.00  0.00    +0.000 A 
ATOM      8  C21 UNK     0      -0.111  -0.185   2.002  0.00  0.00    +0.000 A 
ATOM      9  C22 UNK     0       1.747   0.506  -2.049  0.00  0.00    +0.000 C 
ATOM     10  N7  UNK     0       1.869   0.541  -3.470  0.00  0.00    +0.000 N 
ATOM     11  H41 UNK     0       2.711   0.964  -3.919  0.00  0.00    +0.000 HD
ATOM     12  H42 UNK     0       1.117   0.145  -4.075  0.00  0.00    +0.000 HD
ATOM     13  H1  UNL     1      -0.190  -0.466  -2.037  0.00  0.00    +0.000 HD
ENDROOT
BRANCH   1  14
ATOM     14  C11 UNK     0      -1.806  -1.038   0.320  0.00  0.00    +0.000 C 
ATOM     15  C13 UNK     0      -2.803   0.123   0.160  0.00  0.00    +0.000 C 
ATOM     16  C12 UNK     0      -4.229  -0.418  -0.044  0.00  0.00    +0.000 C 
ATOM     17  C14 UNK     0      -4.648  -1.237   1.192  0.00  0.00    +0.000 C 
ATOM     18  C18 UNK     0      -3.597  -2.237   1.603  0.00  0.00    +0.000 C 
ATOM     19  C15 UNK     0      -2.300  -2.097   1.284  0.00  0.00    +0.000 C 
BRANCH  16  20
ATOM     20  C17 UNK     0      -5.227   0.722  -0.297  0.00  0.00    +0.000 C 
BRANCH  20  21
ATOM     21  O1  UNK     0      -4.923   1.367  -1.504  0.00  0.00    +0.000 OA
ATOM     22  H40 UNK     0      -5.591   2.094  -1.603  0.00  0.00    +0.000 HD
ENDBRANCH  20  21
ENDBRANCH  16  20
ENDBRANCH   1  14
BRANCH   5  23
ATOM     23  N2  UNK     0       3.898   0.338   0.682  0.00  0.00    +0.000 NA
ATOM     24  H32 UNK     0       3.903  -0.628   0.275  0.00  0.00    +0.000 HD
BRANCH  23  25
ATOM     25  C8  UNK     0       5.128   1.074   0.344  0.00  0.00    +0.000 C 
ATOM     26  C9  UNK     0       5.894   0.565  -0.869  0.00  0.00    +0.000 C 
ATOM     27  C10 UNK     0       6.391   0.249   0.534  0.00  0.00    +0.000 C 
ENDBRANCH  23  25
ENDBRANCH   5  23
TORSDOF 5
