REMARK  Name = C:\Users\Maximilian\Desktop\Conformers\converted_pdb\conformers_pdb\Lipid IVa_conf_69.pdb
REMARK  5 active torsions:
REMARK  status: ('A' for Active; 'I' for Inactive)
REMARK    1  A    between atoms: N3_1  and  C11_10
REMARK    2  A    between atoms: C16_5  and  N2_19
REMARK    3  A    between atoms: C12_12  and  C17_16
REMARK    4  A    between atoms: C17_16  and  O1_17
REMARK    5  A    between atoms: N2_19  and  C8_21
REMARK                            x       y       z     vdW  Elec       q    Type
REMARK                         _______ _______ _______ _____ _____    ______ ____
ROOT
ATOM      1  N3  UNK     0      -0.420  -0.742   0.153  0.00  0.00    +0.000 N 
ATOM      2  N4  UNK     0       1.182  -1.756   1.396  0.00  0.00    +0.000 NA
ATOM      3  N5  UNK     0       3.134   1.299   0.383  0.00  0.00    +0.000 NA
ATOM      4  N6  UNK     0       0.902   1.267  -0.473  0.00  0.00    +0.000 N 
ATOM      5  C16 UNK     0       3.024  -0.016   1.055  0.00  0.00    +0.000 C 
ATOM      6  C19 UNK     0       0.705  -0.011   0.124  0.00  0.00    +0.000 A 
ATOM      7  C20 UNK     0       1.665  -0.621   0.855  0.00  0.00    +0.000 A 
ATOM      8  C21 UNK     0      -0.100  -1.794   0.948  0.00  0.00    +0.000 A 
ATOM      9  C22 UNK     0       2.189   1.889  -0.306  0.00  0.00    +0.000 C 
ATOM     10  N7  UNK     0       2.442   3.161  -0.899  0.00  0.00    +0.000 N 
ATOM     11  H41 UNK     0       3.372   3.622  -0.789  0.00  0.00    +0.000 HD
ATOM     12  H42 UNK     0       1.700   3.644  -1.452  0.00  0.00    +0.000 HD
ATOM     13  H1  UNL     1       0.142   1.747  -1.003  0.00  0.00    +0.000 HD
ENDROOT
BRANCH   1  14
ATOM     14  C11 UNK     0      -1.738  -0.397  -0.393  0.00  0.00    +0.000 C 
ATOM     15  C13 UNK     0      -2.562   0.351   0.670  0.00  0.00    +0.000 C 
ATOM     16  C12 UNK     0      -4.022   0.501   0.210  0.00  0.00    +0.000 C 
ATOM     17  C14 UNK     0      -4.646  -0.895   0.022  0.00  0.00    +0.000 C 
ATOM     18  C18 UNK     0      -3.771  -1.811  -0.796  0.00  0.00    +0.000 C 
ATOM     19  C15 UNK     0      -2.444  -1.634  -0.908  0.00  0.00    +0.000 C 
BRANCH  16  20
ATOM     20  C17 UNK     0      -4.844   1.325   1.218  0.00  0.00    +0.000 C 
BRANCH  20  21
ATOM     21  O1  UNK     0      -4.349   2.634   1.313  0.00  0.00    +0.000 OA
ATOM     22  H40 UNK     0      -4.635   3.107   0.488  0.00  0.00    +0.000 HD
ENDBRANCH  20  21
ENDBRANCH  16  20
ENDBRANCH   1  14
BRANCH   5  23
ATOM     23  N2  UNK     0       4.078  -0.929   0.588  0.00  0.00    +0.000 NA
ATOM     24  H32 UNK     0       5.000  -0.547   0.908  0.00  0.00    +0.000 HD
BRANCH  23  25
ATOM     25  C8  UNK     0       4.045  -1.093  -0.878  0.00  0.00    +0.000 C 
ATOM     26  C9  UNK     0       5.304  -1.738  -1.438  0.00  0.00    +0.000 C 
ATOM     27  C10 UNK     0       5.046  -0.255  -1.663  0.00  0.00    +0.000 C 
ENDBRANCH  23  25
ENDBRANCH   5  23
TORSDOF 5
