REMARK  Name = C:\Users\Maximilian\Desktop\Conformers\converted_pdb\conformers_pdb\Lipid IVa_conf_50.pdb
REMARK  5 active torsions:
REMARK  status: ('A' for Active; 'I' for Inactive)
REMARK    1  A    between atoms: N3_1  and  C11_10
REMARK    2  A    between atoms: C16_5  and  N2_19
REMARK    3  A    between atoms: C12_12  and  C17_16
REMARK    4  A    between atoms: C17_16  and  O1_17
REMARK    5  A    between atoms: N2_19  and  C8_21
REMARK                            x       y       z     vdW  Elec       q    Type
REMARK                         _______ _______ _______ _____ _____    ______ ____
ROOT
ATOM      1  N3  UNK     0      -0.603  -0.686  -0.199  0.00  0.00    +0.000 N 
ATOM      2  N4  UNK     0       1.149  -1.826   0.677  0.00  0.00    +0.000 NA
ATOM      3  N5  UNK     0       2.870   1.469   0.127  0.00  0.00    +0.000 NA
ATOM      4  N6  UNK     0       0.572   1.477  -0.527  0.00  0.00    +0.000 N 
ATOM      5  C16 UNK     0       2.880   0.044   0.534  0.00  0.00    +0.000 C 
ATOM      6  C19 UNK     0       0.486   0.098  -0.185  0.00  0.00    +0.000 A 
ATOM      7  C20 UNK     0       1.535  -0.585   0.326  0.00  0.00    +0.000 A 
ATOM      8  C21 UNK     0      -0.167  -1.851   0.345  0.00  0.00    +0.000 A 
ATOM      9  C22 UNK     0       1.842   2.127  -0.349  0.00  0.00    +0.000 C 
ATOM     10  N7  UNK     0       1.988   3.503  -0.692  0.00  0.00    +0.000 N 
ATOM     11  H41 UNK     0       1.179   4.042  -1.074  0.00  0.00    +0.000 HD
ATOM     12  H42 UNK     0       2.905   3.987  -0.568  0.00  0.00    +0.000 HD
ATOM     13  H1  UNL     1      -0.255   2.007  -0.881  0.00  0.00    +0.000 HD
ENDROOT
BRANCH   1  14
ATOM     14  C11 UNK     0      -1.981  -0.316  -0.542  0.00  0.00    +0.000 C 
ATOM     15  C13 UNK     0      -2.719   0.170   0.717  0.00  0.00    +0.000 C 
ATOM     16  C12 UNK     0      -4.222   0.325   0.432  0.00  0.00    +0.000 C 
ATOM     17  C14 UNK     0      -4.813  -1.041   0.034  0.00  0.00    +0.000 C 
ATOM     18  C18 UNK     0      -3.993  -1.735  -1.024  0.00  0.00    +0.000 C 
ATOM     19  C15 UNK     0      -2.691  -1.469  -1.221  0.00  0.00    +0.000 C 
BRANCH  16  20
ATOM     20  C17 UNK     0      -4.967   0.897   1.653  0.00  0.00    +0.000 C 
BRANCH  20  21
ATOM     21  O1  UNK     0      -4.511   2.188   1.955  0.00  0.00    +0.000 OA
ATOM     22  H40 UNK     0      -4.896   2.793   1.268  0.00  0.00    +0.000 HD
ENDBRANCH  20  21
ENDBRANCH  16  20
ENDBRANCH   1  14
BRANCH   5  23
ATOM     23  N2  UNK     0       3.884  -0.700  -0.237  0.00  0.00    +0.000 NA
ATOM     24  H32 UNK     0       3.773  -0.464  -1.252  0.00  0.00    +0.000 HD
BRANCH  23  25
ATOM     25  C8  UNK     0       5.232  -0.297   0.165  0.00  0.00    +0.000 C 
ATOM     26  C9  UNK     0       6.281  -1.341  -0.175  0.00  0.00    +0.000 C 
ATOM     27  C10 UNK     0       5.825  -1.161   1.264  0.00  0.00    +0.000 C 
ENDBRANCH  23  25
ENDBRANCH   5  23
TORSDOF 5
