REMARK  Name = C:\Users\Maximilian\Desktop\Conformers\converted_pdb\conformers_pdb\Lipid IVa_conf_45.pdb
REMARK  5 active torsions:
REMARK  status: ('A' for Active; 'I' for Inactive)
REMARK    1  A    between atoms: N3_1  and  C11_10
REMARK    2  A    between atoms: C16_5  and  N2_19
REMARK    3  A    between atoms: C12_12  and  C17_16
REMARK    4  A    between atoms: C17_16  and  O1_17
REMARK    5  A    between atoms: N2_19  and  C8_21
REMARK                            x       y       z     vdW  Elec       q    Type
REMARK                         _______ _______ _______ _____ _____    ______ ____
ROOT
ATOM      1  N3  UNK     0      -0.390   1.674  -0.493  0.00  0.00    +0.000 N 
ATOM      2  N4  UNK     0       1.633   2.638  -0.827  0.00  0.00    +0.000 NA
ATOM      3  N5  UNK     0       2.579  -0.907  -1.679  0.00  0.00    +0.000 NA
ATOM      4  N6  UNK     0       0.286  -0.657  -1.050  0.00  0.00    +0.000 N 
ATOM      5  C16 UNK     0       2.911   0.524  -1.489  0.00  0.00    +0.000 C 
ATOM      6  C19 UNK     0       0.496   0.742  -0.886  0.00  0.00    +0.000 A 
ATOM      7  C20 UNK     0       1.701   1.318  -1.091  0.00  0.00    +0.000 A 
ATOM      8  C21 UNK     0       0.337   2.817  -0.463  0.00  0.00    +0.000 A 
ATOM      9  C22 UNK     0       1.405  -1.453  -1.478  0.00  0.00    +0.000 C 
ATOM     10  N7  UNK     0       1.237  -2.854  -1.688  0.00  0.00    +0.000 N 
ATOM     11  H41 UNK     0       2.042  -3.444  -1.996  0.00  0.00    +0.000 HD
ATOM     12  H42 UNK     0       0.309  -3.305  -1.532  0.00  0.00    +0.000 HD
ATOM     13  H1  UNL     1      -0.645  -1.096  -0.880  0.00  0.00    +0.000 HD
ENDROOT
BRANCH   1  14
ATOM     14  C11 UNK     0      -1.792   1.520  -0.089  0.00  0.00    +0.000 C 
ATOM     15  C13 UNK     0      -1.893   0.768   1.258  0.00  0.00    +0.000 C 
ATOM     16  C12 UNK     0      -3.343   0.303   1.616  0.00  0.00    +0.000 C 
ATOM     17  C14 UNK     0      -4.385   0.596   0.505  0.00  0.00    +0.000 C 
ATOM     18  C18 UNK     0      -3.814   0.361  -0.867  0.00  0.00    +0.000 C 
ATOM     19  C15 UNK     0      -2.589   0.812  -1.156  0.00  0.00    +0.000 C 
BRANCH  16  20
ATOM     20  C17 UNK     0      -3.370  -1.181   2.037  0.00  0.00    +0.000 C 
BRANCH  20  21
ATOM     21  O1  UNK     0      -2.966  -2.018   0.985  0.00  0.00    +0.000 OA
ATOM     22  H40 UNK     0      -3.780  -2.233   0.459  0.00  0.00    +0.000 HD
ENDBRANCH  20  21
ENDBRANCH  16  20
ENDBRANCH   1  14
BRANCH   5  23
ATOM     23  N2  UNK     0       3.989   0.679  -0.501  0.00  0.00    +0.000 NA
ATOM     24  H32 UNK     0       4.859   0.255  -0.904  0.00  0.00    +0.000 HD
BRANCH  23  25
ATOM     25  C8  UNK     0       3.638   0.057   0.790  0.00  0.00    +0.000 C 
ATOM     26  C9  UNK     0       4.831  -0.115   1.717  0.00  0.00    +0.000 C 
ATOM     27  C10 UNK     0       4.215  -1.330   1.039  0.00  0.00    +0.000 C 
ENDBRANCH  23  25
ENDBRANCH   5  23
TORSDOF 5
