REMARK  Name = C:\Users\Maximilian\Desktop\Conformers\converted_pdb\conformers_pdb\Lipid IVa_conf_64.pdb
REMARK  5 active torsions:
REMARK  status: ('A' for Active; 'I' for Inactive)
REMARK    1  A    between atoms: N3_1  and  C11_10
REMARK    2  A    between atoms: C16_5  and  N2_19
REMARK    3  A    between atoms: C12_12  and  C17_16
REMARK    4  A    between atoms: C17_16  and  O1_17
REMARK    5  A    between atoms: N2_19  and  C8_21
REMARK                            x       y       z     vdW  Elec       q    Type
REMARK                         _______ _______ _______ _____ _____    ______ ____
ROOT
ATOM      1  N3  UNK     0      -0.426  -0.606  -0.958  0.00  0.00    +0.000 N 
ATOM      2  N4  UNK     0       1.670  -1.154  -1.648  0.00  0.00    +0.000 NA
ATOM      3  N5  UNK     0       2.600   1.921   0.263  0.00  0.00    +0.000 NA
ATOM      4  N6  UNK     0       0.258   1.454   0.328  0.00  0.00    +0.000 N 
ATOM      5  C16 UNK     0       2.963   0.665  -0.425  0.00  0.00    +0.000 C 
ATOM      6  C19 UNK     0       0.477   0.253  -0.418  0.00  0.00    +0.000 A 
ATOM      7  C20 UNK     0       1.726  -0.088  -0.833  0.00  0.00    +0.000 A 
ATOM      8  C21 UNK     0       0.349  -1.440  -1.700  0.00  0.00    +0.000 A 
ATOM      9  C22 UNK     0       1.397   2.279   0.629  0.00  0.00    +0.000 C 
ATOM     10  N7  UNK     0       1.212   3.523   1.303  0.00  0.00    +0.000 N 
ATOM     11  H41 UNK     0       2.029   4.137   1.515  0.00  0.00    +0.000 HD
ATOM     12  H42 UNK     0       0.258   3.832   1.594  0.00  0.00    +0.000 HD
ATOM     13  H1  UNL     1      -0.680   1.826   0.563  0.00  0.00    +0.000 HD
ENDROOT
BRANCH   1  14
ATOM     14  C11 UNK     0      -1.889  -0.790  -0.831  0.00  0.00    +0.000 C 
ATOM     15  C13 UNK     0      -2.642   0.368  -0.161  0.00  0.00    +0.000 C 
ATOM     16  C12 UNK     0      -4.146   0.038  -0.110  0.00  0.00    +0.000 C 
ATOM     17  C14 UNK     0      -4.373  -1.215   0.763  0.00  0.00    +0.000 C 
ATOM     18  C18 UNK     0      -3.368  -2.313   0.499  0.00  0.00    +0.000 C 
ATOM     19  C15 UNK     0      -2.198  -2.096  -0.126  0.00  0.00    +0.000 C 
BRANCH  16  20
ATOM     20  C17 UNK     0      -4.961   1.226   0.434  0.00  0.00    +0.000 C 
BRANCH  20  21
ATOM     21  O1  UNK     0      -4.862   2.334  -0.421  0.00  0.00    +0.000 OA
ATOM     22  H40 UNK     0      -5.430   2.135  -1.210  0.00  0.00    +0.000 HD
ENDBRANCH  20  21
ENDBRANCH  16  20
ENDBRANCH   1  14
BRANCH   5  23
ATOM     23  N2  UNK     0       3.779  -0.164   0.476  0.00  0.00    +0.000 NA
ATOM     24  H32 UNK     0       4.385   0.467   1.054  0.00  0.00    +0.000 HD
BRANCH  23  25
ATOM     25  C8  UNK     0       4.606  -1.112  -0.293  0.00  0.00    +0.000 C 
ATOM     26  C9  UNK     0       5.828  -1.613   0.462  0.00  0.00    +0.000 C 
ATOM     27  C10 UNK     0       5.993  -0.613  -0.674  0.00  0.00    +0.000 C 
ENDBRANCH  23  25
ENDBRANCH   5  23
TORSDOF 5
