REMARK  Name = C:\Users\Maximilian\Desktop\Conformers\converted_pdb\conformers_pdb\Lipid IVa_conf_43.pdb
REMARK  5 active torsions:
REMARK  status: ('A' for Active; 'I' for Inactive)
REMARK    1  A    between atoms: N3_1  and  C11_10
REMARK    2  A    between atoms: C16_5  and  N2_19
REMARK    3  A    between atoms: C12_12  and  C17_16
REMARK    4  A    between atoms: C17_16  and  O1_17
REMARK    5  A    between atoms: N2_19  and  C8_21
REMARK                            x       y       z     vdW  Elec       q    Type
REMARK                         _______ _______ _______ _____ _____    ______ ____
ROOT
ATOM      1  N3  UNK     0      -0.238   0.883  -1.001  0.00  0.00    +0.000 N 
ATOM      2  N4  UNK     0       1.629   0.487  -2.226  0.00  0.00    +0.000 NA
ATOM      3  N5  UNK     0       3.266   2.130   0.740  0.00  0.00    +0.000 NA
ATOM      4  N6  UNK     0       0.894   1.918   0.956  0.00  0.00    +0.000 N 
ATOM      5  C16 UNK     0       3.330   1.423  -0.558  0.00  0.00    +0.000 C 
ATOM      6  C19 UNK     0       0.839   1.348  -0.348  0.00  0.00    +0.000 A 
ATOM      7  C20 UNK     0       1.951   1.124  -1.084  0.00  0.00    +0.000 A 
ATOM      8  C21 UNK     0       0.281   0.354  -2.139  0.00  0.00    +0.000 A 
ATOM      9  C22 UNK     0       2.179   2.343   1.442  0.00  0.00    +0.000 C 
ATOM     10  N7  UNK     0       2.274   3.016   2.696  0.00  0.00    +0.000 N 
ATOM     11  H41 UNK     0       1.418   3.198   3.265  0.00  0.00    +0.000 HD
ATOM     12  H42 UNK     0       3.201   3.333   3.059  0.00  0.00    +0.000 HD
ATOM     13  H1  UNL     1       0.035   2.051   1.533  0.00  0.00    +0.000 HD
ENDROOT
BRANCH   1  14
ATOM     14  C11 UNK     0      -1.616   0.773  -0.506  0.00  0.00    +0.000 C 
ATOM     15  C13 UNK     0      -1.850  -0.625   0.100  0.00  0.00    +0.000 C 
ATOM     16  C12 UNK     0      -3.340  -0.891   0.494  0.00  0.00    +0.000 C 
ATOM     17  C14 UNK     0      -4.327   0.176  -0.057  0.00  0.00    +0.000 C 
ATOM     18  C18 UNK     0      -3.901   0.697  -1.403  0.00  0.00    +0.000 C 
ATOM     19  C15 UNK     0      -2.618   1.014  -1.610  0.00  0.00    +0.000 C 
BRANCH  16  20
ATOM     20  C17 UNK     0      -3.782  -2.306   0.069  0.00  0.00    +0.000 C 
BRANCH  20  21
ATOM     21  O1  UNK     0      -2.944  -3.280   0.631  0.00  0.00    +0.000 OA
ATOM     22  H40 UNK     0      -3.184  -3.342   1.593  0.00  0.00    +0.000 HD
ENDBRANCH  20  21
ENDBRANCH  16  20
ENDBRANCH   1  14
BRANCH   5  23
ATOM     23  N2  UNK     0       4.140   0.201  -0.427  0.00  0.00    +0.000 NA
ATOM     24  H32 UNK     0       4.257  -0.225  -1.378  0.00  0.00    +0.000 HD
BRANCH  23  25
ATOM     25  C8  UNK     0       3.547  -0.754   0.529  0.00  0.00    +0.000 C 
ATOM     26  C9  UNK     0       4.194  -2.129   0.478  0.00  0.00    +0.000 C 
ATOM     27  C10 UNK     0       2.794  -1.929  -0.082  0.00  0.00    +0.000 C 
ENDBRANCH  23  25
ENDBRANCH   5  23
TORSDOF 5
