REMARK  Name = C:\Users\Maximilian\Desktop\Conformers\converted_pdb\conformers_pdb\Lipid IVa_conf_60.pdb
REMARK  5 active torsions:
REMARK  status: ('A' for Active; 'I' for Inactive)
REMARK    1  A    between atoms: N3_1  and  C11_10
REMARK    2  A    between atoms: C16_5  and  N2_19
REMARK    3  A    between atoms: C12_12  and  C17_16
REMARK    4  A    between atoms: C17_16  and  O1_17
REMARK    5  A    between atoms: N2_19  and  C8_21
REMARK                            x       y       z     vdW  Elec       q    Type
REMARK                         _______ _______ _______ _____ _____    ______ ____
ROOT
ATOM      1  N3  UNK     0      -0.465   0.711  -0.977  0.00  0.00    +0.000 N 
ATOM      2  N4  UNK     0       1.504   1.824  -0.897  0.00  0.00    +0.000 NA
ATOM      3  N5  UNK     0       2.380  -0.981   1.438  0.00  0.00    +0.000 NA
ATOM      4  N6  UNK     0       0.174  -1.154   0.538  0.00  0.00    +0.000 N 
ATOM      5  C16 UNK     0       2.768   0.188   0.615  0.00  0.00    +0.000 C 
ATOM      6  C19 UNK     0       0.412   0.025  -0.223  0.00  0.00    +0.000 A 
ATOM      7  C20 UNK     0       1.591   0.687  -0.178  0.00  0.00    +0.000 A 
ATOM      8  C21 UNK     0       0.232   1.804  -1.370  0.00  0.00    +0.000 A 
ATOM      9  C22 UNK     0       1.230  -1.607   1.401  0.00  0.00    +0.000 C 
ATOM     10  N7  UNK     0       1.017  -2.735   2.248  0.00  0.00    +0.000 N 
ATOM     11  H41 UNK     0       1.773  -3.070   2.886  0.00  0.00    +0.000 HD
ATOM     12  H42 UNK     0       0.103  -3.240   2.237  0.00  0.00    +0.000 HD
ATOM     13  H1  UNL     1      -0.744  -1.649   0.513  0.00  0.00    +0.000 HD
ENDROOT
BRANCH   1  14
ATOM     14  C11 UNK     0      -1.881   0.435  -1.243  0.00  0.00    +0.000 C 
ATOM     15  C13 UNK     0      -2.724   0.702   0.018  0.00  0.00    +0.000 C 
ATOM     16  C12 UNK     0      -4.152   0.156  -0.162  0.00  0.00    +0.000 C 
ATOM     17  C14 UNK     0      -4.093  -1.365  -0.396  0.00  0.00    +0.000 C 
ATOM     18  C18 UNK     0      -3.103  -1.742  -1.469  0.00  0.00    +0.000 C 
ATOM     19  C15 UNK     0      -2.054  -0.966  -1.788  0.00  0.00    +0.000 C 
BRANCH  16  20
ATOM     20  C17 UNK     0      -5.034   0.474   1.059  0.00  0.00    +0.000 C 
BRANCH  20  21
ATOM     21  O1  UNK     0      -5.247   1.857   1.168  0.00  0.00    +0.000 OA
ATOM     22  H40 UNK     0      -4.552   2.210   1.782  0.00  0.00    +0.000 HD
ENDBRANCH  20  21
ENDBRANCH  16  20
ENDBRANCH   1  14
BRANCH   5  23
ATOM     23  N2  UNK     0       3.858  -0.199  -0.295  0.00  0.00    +0.000 NA
ATOM     24  H32 UNK     0       4.476  -0.888   0.197  0.00  0.00    +0.000 HD
BRANCH  23  25
ATOM     25  C8  UNK     0       4.633   0.984  -0.712  0.00  0.00    +0.000 C 
ATOM     26  C9  UNK     0       6.039   0.658  -1.193  0.00  0.00    +0.000 C 
ATOM     27  C10 UNK     0       5.833   1.323   0.161  0.00  0.00    +0.000 C 
ENDBRANCH  23  25
ENDBRANCH   5  23
TORSDOF 5
