REMARK  Name = C:\Users\Maximilian\Desktop\Conformers\converted_pdb\conformers_pdb\Lipid IVa_conf_33.pdb
REMARK  5 active torsions:
REMARK  status: ('A' for Active; 'I' for Inactive)
REMARK    1  A    between atoms: N3_1  and  C11_10
REMARK    2  A    between atoms: C16_5  and  N2_19
REMARK    3  A    between atoms: C12_12  and  C17_16
REMARK    4  A    between atoms: C17_16  and  O1_17
REMARK    5  A    between atoms: N2_19  and  C8_21
REMARK                            x       y       z     vdW  Elec       q    Type
REMARK                         _______ _______ _______ _____ _____    ______ ____
ROOT
ATOM      1  N3  UNK     0       0.492   0.255  -0.766  0.00  0.00    +0.000 N 
ATOM      2  N4  UNK     0      -1.271   1.676  -0.691  0.00  0.00    +0.000 NA
ATOM      3  N5  UNK     0      -2.738  -1.108   1.356  0.00  0.00    +0.000 NA
ATOM      4  N6  UNK     0      -0.518  -1.559   0.596  0.00  0.00    +0.000 N 
ATOM      5  C16 UNK     0      -2.855   0.194   0.660  0.00  0.00    +0.000 C 
ATOM      6  C19 UNK     0      -0.525  -0.320  -0.105  0.00  0.00    +0.000 A 
ATOM      7  C20 UNK     0      -1.583   0.522  -0.070  0.00  0.00    +0.000 A 
ATOM      8  C21 UNK     0       0.008   1.477  -1.101  0.00  0.00    +0.000 A 
ATOM      9  C22 UNK     0      -1.701  -1.908   1.335  0.00  0.00    +0.000 C 
ATOM     10  N7  UNK     0      -1.745  -3.135   2.061  0.00  0.00    +0.000 N 
ATOM     11  H41 UNK     0      -2.597  -3.400   2.604  0.00  0.00    +0.000 HD
ATOM     12  H42 UNK     0      -0.926  -3.783   2.057  0.00  0.00    +0.000 HD
ATOM     13  H1  UNL     1       0.319  -2.182   0.600  0.00  0.00    +0.000 HD
ENDROOT
BRANCH   1  14
ATOM     14  C11 UNK     0       1.865  -0.239  -0.920  0.00  0.00    +0.000 C 
ATOM     15  C13 UNK     0       2.734   0.264   0.247  0.00  0.00    +0.000 C 
ATOM     16  C12 UNK     0       4.218  -0.034  -0.021  0.00  0.00    +0.000 C 
ATOM     17  C14 UNK     0       4.669   0.701  -1.299  0.00  0.00    +0.000 C 
ATOM     18  C18 UNK     0       3.715   0.493  -2.448  0.00  0.00    +0.000 C 
ATOM     19  C15 UNK     0       2.427   0.155  -2.270  0.00  0.00    +0.000 C 
BRANCH  16  20
ATOM     20  C17 UNK     0       5.078   0.376   1.189  0.00  0.00    +0.000 C 
BRANCH  20  21
ATOM     21  O1  UNK     0       6.426   0.057   0.973  0.00  0.00    +0.000 OA
ATOM     22  H40 UNK     0       6.506  -0.927   1.079  0.00  0.00    +0.000 HD
ENDBRANCH  20  21
ENDBRANCH  16  20
ENDBRANCH   1  14
BRANCH   5  23
ATOM     23  N2  UNK     0      -3.977   0.151  -0.288  0.00  0.00    +0.000 NA
ATOM     24  H32 UNK     0      -3.975   1.039  -0.846  0.00  0.00    +0.000 HD
BRANCH  23  25
ATOM     25  C8  UNK     0      -5.249   0.003   0.442  0.00  0.00    +0.000 C 
ATOM     26  C9  UNK     0      -6.467   0.451  -0.352  0.00  0.00    +0.000 C 
ATOM     27  C10 UNK     0      -5.956   1.303   0.802  0.00  0.00    +0.000 C 
ENDBRANCH  23  25
ENDBRANCH   5  23
TORSDOF 5
