REMARK  Name = C:\Users\Maximilian\Desktop\Conformers\converted_pdb\conformers_pdb\Lipid IVa_conf_7.pdb
REMARK  5 active torsions:
REMARK  status: ('A' for Active; 'I' for Inactive)
REMARK    1  A    between atoms: N3_1  and  C11_10
REMARK    2  A    between atoms: C16_5  and  N2_19
REMARK    3  A    between atoms: C12_12  and  C17_16
REMARK    4  A    between atoms: C17_16  and  O1_17
REMARK    5  A    between atoms: N2_19  and  C8_21
REMARK                            x       y       z     vdW  Elec       q    Type
REMARK                         _______ _______ _______ _____ _____    ______ ____
ROOT
ATOM      1  N3  UNK     0      -0.656   0.661  -0.730  0.00  0.00    +0.000 N 
ATOM      2  N4  UNK     0       1.242   0.139  -1.854  0.00  0.00    +0.000 NA
ATOM      3  N5  UNK     0       2.822   1.451   1.295  0.00  0.00    +0.000 NA
ATOM      4  N6  UNK     0       0.432   1.485   1.346  0.00  0.00    +0.000 N 
ATOM      5  C16 UNK     0       2.911   0.874  -0.067  0.00  0.00    +0.000 C 
ATOM      6  C19 UNK     0       0.414   0.981   0.015  0.00  0.00    +0.000 A 
ATOM      7  C20 UNK     0       1.547   0.681  -0.659  0.00  0.00    +0.000 A 
ATOM      8  C21 UNK     0      -0.116   0.136  -1.859  0.00  0.00    +0.000 A 
ATOM      9  C22 UNK     0       1.717   1.724   1.945  0.00  0.00    +0.000 C 
ATOM     10  N7  UNK     0       1.794   2.268   3.262  0.00  0.00    +0.000 N 
ATOM     11  H41 UNK     0       0.924   2.493   3.793  0.00  0.00    +0.000 HD
ATOM     12  H42 UNK     0       2.721   2.447   3.709  0.00  0.00    +0.000 HD
ATOM     13  H1  UNL     1      -0.448   1.677   1.872  0.00  0.00    +0.000 HD
ENDROOT
BRANCH   1  14
ATOM     14  C11 UNK     0      -2.071   0.698  -0.345  0.00  0.00    +0.000 C 
ATOM     15  C13 UNK     0      -2.478  -0.650   0.275  0.00  0.00    +0.000 C 
ATOM     16  C12 UNK     0      -4.005  -0.723   0.442  0.00  0.00    +0.000 C 
ATOM     17  C14 UNK     0      -4.683  -0.615  -0.937  0.00  0.00    +0.000 C 
ATOM     18  C18 UNK     0      -4.154   0.548  -1.739  0.00  0.00    +0.000 C 
ATOM     19  C15 UNK     0      -2.938   1.078  -1.529  0.00  0.00    +0.000 C 
BRANCH  16  20
ATOM     20  C17 UNK     0      -4.434  -1.999   1.190  0.00  0.00    +0.000 C 
BRANCH  20  21
ATOM     21  O1  UNK     0      -3.990  -3.155   0.530  0.00  0.00    +0.000 OA
ATOM     22  H40 UNK     0      -4.727  -3.452  -0.064  0.00  0.00    +0.000 HD
ENDBRANCH  20  21
ENDBRANCH  16  20
ENDBRANCH   1  14
BRANCH   5  23
ATOM     23  N2  UNK     0       3.606  -0.419  -0.026  0.00  0.00    +0.000 NA
ATOM     24  H32 UNK     0       3.195  -0.999   0.743  0.00  0.00    +0.000 HD
BRANCH  23  25
ATOM     25  C8  UNK     0       5.024  -0.223   0.276  0.00  0.00    +0.000 C 
ATOM     26  C9  UNK     0       5.899  -0.091  -0.957  0.00  0.00    +0.000 C 
ATOM     27  C10 UNK     0       5.885  -1.391  -0.169  0.00  0.00    +0.000 C 
ENDBRANCH  23  25
ENDBRANCH   5  23
TORSDOF 5
