REMARK  Name = C:\Users\Maximilian\Desktop\Conformers\converted_pdb\conformers_pdb\Lipid IVa_conf_68.pdb
REMARK  5 active torsions:
REMARK  status: ('A' for Active; 'I' for Inactive)
REMARK    1  A    between atoms: N3_1  and  C11_10
REMARK    2  A    between atoms: C16_5  and  N2_19
REMARK    3  A    between atoms: C12_12  and  C17_16
REMARK    4  A    between atoms: C17_16  and  O1_17
REMARK    5  A    between atoms: N2_19  and  C8_21
REMARK                            x       y       z     vdW  Elec       q    Type
REMARK                         _______ _______ _______ _____ _____    ______ ____
ROOT
ATOM      1  N3  UNK     0       0.284   0.298  -0.957  0.00  0.00    +0.000 N 
ATOM      2  N4  UNK     0      -1.287   1.914  -1.191  0.00  0.00    +0.000 NA
ATOM      3  N5  UNK     0      -3.587  -0.963  -0.416  0.00  0.00    +0.000 NA
ATOM      4  N6  UNK     0      -1.272  -1.566  -0.411  0.00  0.00    +0.000 N 
ATOM      5  C16 UNK     0      -3.336   0.469  -0.698  0.00  0.00    +0.000 C 
ATOM      6  C19 UNK     0      -0.931  -0.216  -0.709  0.00  0.00    +0.000 A 
ATOM      7  C20 UNK     0      -1.869   0.749  -0.848  0.00  0.00    +0.000 A 
ATOM      8  C21 UNK     0       0.032   1.601  -1.239  0.00  0.00    +0.000 A 
ATOM      9  C22 UNK     0      -2.669  -1.888  -0.280  0.00  0.00    +0.000 C 
ATOM     10  N7  UNK     0      -3.064  -3.231  -0.001  0.00  0.00    +0.000 N 
ATOM     11  H41 UNK     0      -2.346  -3.979   0.115  0.00  0.00    +0.000 HD
ATOM     12  H42 UNK     0      -4.074  -3.478   0.093  0.00  0.00    +0.000 HD
ATOM     13  H1  UNL     1      -0.547  -2.307  -0.295  0.00  0.00    +0.000 HD
ENDROOT
BRANCH   1  14
ATOM     14  C11 UNK     0       1.589  -0.373  -0.956  0.00  0.00    +0.000 C 
ATOM     15  C13 UNK     0       2.458   0.154   0.202  0.00  0.00    +0.000 C 
ATOM     16  C12 UNK     0       3.903  -0.353   0.053  0.00  0.00    +0.000 C 
ATOM     17  C14 UNK     0       4.506   0.166  -1.266  0.00  0.00    +0.000 C 
ATOM     18  C18 UNK     0       3.587  -0.057  -2.441  0.00  0.00    +0.000 C 
ATOM     19  C15 UNK     0       2.258  -0.207  -2.304  0.00  0.00    +0.000 C 
BRANCH  16  20
ATOM     20  C17 UNK     0       4.768   0.031   1.267  0.00  0.00    +0.000 C 
BRANCH  20  21
ATOM     21  O1  UNK     0       4.811   1.421   1.451  0.00  0.00    +0.000 OA
ATOM     22  H40 UNK     0       5.605   1.756   0.956  0.00  0.00    +0.000 HD
ENDBRANCH  20  21
ENDBRANCH  16  20
ENDBRANCH   1  14
BRANCH   5  23
ATOM     23  N2  UNK     0      -3.925   1.319   0.347  0.00  0.00    +0.000 NA
ATOM     24  H32 UNK     0      -4.968   1.252   0.267  0.00  0.00    +0.000 HD
BRANCH  23  25
ATOM     25  C8  UNK     0      -3.461   0.928   1.692  0.00  0.00    +0.000 C 
ATOM     26  C9  UNK     0      -4.423   0.068   2.502  0.00  0.00    +0.000 C 
ATOM     27  C10 UNK     0      -4.279   1.552   2.812  0.00  0.00    +0.000 C 
ENDBRANCH  23  25
ENDBRANCH   5  23
TORSDOF 5
