REMARK  Name = C:\Users\Maximilian\Desktop\Conformers\converted_pdb\conformers_pdb\Lipid IVa_conf_47.pdb
REMARK  5 active torsions:
REMARK  status: ('A' for Active; 'I' for Inactive)
REMARK    1  A    between atoms: N3_1  and  C11_10
REMARK    2  A    between atoms: C16_5  and  N2_19
REMARK    3  A    between atoms: C12_12  and  C17_16
REMARK    4  A    between atoms: C17_16  and  O1_17
REMARK    5  A    between atoms: N2_19  and  C8_21
REMARK                            x       y       z     vdW  Elec       q    Type
REMARK                         _______ _______ _______ _____ _____    ______ ____
ROOT
ATOM      1  N3  UNK     0      -0.190   0.582  -1.052  0.00  0.00    +0.000 N 
ATOM      2  N4  UNK     0       1.819   1.597  -0.810  0.00  0.00    +0.000 NA
ATOM      3  N5  UNK     0       2.049  -0.745   2.114  0.00  0.00    +0.000 NA
ATOM      4  N6  UNK     0       0.026  -0.986   0.866  0.00  0.00    +0.000 N 
ATOM      5  C16 UNK     0       2.666   0.225   1.180  0.00  0.00    +0.000 C 
ATOM      6  C19 UNK     0       0.485   0.013  -0.038  0.00  0.00    +0.000 A 
ATOM      7  C20 UNK     0       1.688   0.616   0.106  0.00  0.00    +0.000 A 
ATOM      8  C21 UNK     0       0.651   1.546  -1.499  0.00  0.00    +0.000 A 
ATOM      9  C22 UNK     0       0.876  -1.313   1.977  0.00  0.00    +0.000 C 
ATOM     10  N7  UNK     0       0.430  -2.247   2.958  0.00  0.00    +0.000 N 
ATOM     11  H41 UNK     0      -0.506  -2.701   2.870  0.00  0.00    +0.000 HD
ATOM     12  H42 UNK     0       1.034  -2.488   3.776  0.00  0.00    +0.000 HD
ATOM     13  H1  UNL     1      -0.911  -1.433   0.761  0.00  0.00    +0.000 HD
ENDROOT
BRANCH   1  14
ATOM     14  C11 UNK     0      -1.555   0.326  -1.523  0.00  0.00    +0.000 C 
ATOM     15  C13 UNK     0      -2.581   0.869  -0.510  0.00  0.00    +0.000 C 
ATOM     16  C12 UNK     0      -3.994   0.371  -0.855  0.00  0.00    +0.000 C 
ATOM     17  C14 UNK     0      -4.025  -1.169  -0.798  0.00  0.00    +0.000 C 
ATOM     18  C18 UNK     0      -2.893  -1.793  -1.575  0.00  0.00    +0.000 C 
ATOM     19  C15 UNK     0      -1.744  -1.144  -1.826  0.00  0.00    +0.000 C 
BRANCH  16  20
ATOM     20  C17 UNK     0      -5.031   0.983   0.105  0.00  0.00    +0.000 C 
BRANCH  20  21
ATOM     21  O1  UNK     0      -6.329   0.579  -0.240  0.00  0.00    +0.000 OA
ATOM     22  H40 UNK     0      -6.578   1.090  -1.055  0.00  0.00    +0.000 HD
ENDBRANCH  20  21
ENDBRANCH  16  20
ENDBRANCH   1  14
BRANCH   5  23
ATOM     23  N2  UNK     0       3.862  -0.379   0.572  0.00  0.00    +0.000 NA
ATOM     24  H32 UNK     0       4.328  -0.989   1.286  0.00  0.00    +0.000 HD
BRANCH  23  25
ATOM     25  C8  UNK     0       4.790   0.665   0.101  0.00  0.00    +0.000 C 
ATOM     26  C9  UNK     0       6.228   0.188  -0.044  0.00  0.00    +0.000 C 
ATOM     27  C10 UNK     0       5.844   1.109   1.107  0.00  0.00    +0.000 C 
ENDBRANCH  23  25
ENDBRANCH   5  23
TORSDOF 5
