REMARK  Name = C:\Users\Maximilian\Desktop\Conformers\converted_pdb\conformers_pdb\Lipid IVa_conf_25.pdb
REMARK  5 active torsions:
REMARK  status: ('A' for Active; 'I' for Inactive)
REMARK    1  A    between atoms: N3_1  and  C11_10
REMARK    2  A    between atoms: C16_5  and  N2_19
REMARK    3  A    between atoms: C12_12  and  C17_16
REMARK    4  A    between atoms: C17_16  and  O1_17
REMARK    5  A    between atoms: N2_19  and  C8_21
REMARK                            x       y       z     vdW  Elec       q    Type
REMARK                         _______ _______ _______ _____ _____    ______ ____
ROOT
ATOM      1  N3  UNK     0       0.229  -0.537  -1.646  0.00  0.00    +0.000 N 
ATOM      2  N4  UNK     0      -1.869  -0.877  -2.431  0.00  0.00    +0.000 NA
ATOM      3  N5  UNK     0      -2.564   2.176  -0.337  0.00  0.00    +0.000 NA
ATOM      4  N6  UNK     0      -0.283   1.463  -0.256  0.00  0.00    +0.000 N 
ATOM      5  C16 UNK     0      -3.006   1.073  -1.218  0.00  0.00    +0.000 C 
ATOM      6  C19 UNK     0      -0.596   0.404  -1.156  0.00  0.00    +0.000 A 
ATOM      7  C20 UNK     0      -1.846   0.205  -1.628  0.00  0.00    +0.000 A 
ATOM      8  C21 UNK     0      -0.580  -1.305  -2.417  0.00  0.00    +0.000 A 
ATOM      9  C22 UNK     0      -1.347   2.358   0.112  0.00  0.00    +0.000 C 
ATOM     10  N7  UNK     0      -1.075   3.462   0.974  0.00  0.00    +0.000 N 
ATOM     11  H41 UNK     0      -1.837   4.119   1.251  0.00  0.00    +0.000 HD
ATOM     12  H42 UNK     0      -0.110   3.624   1.338  0.00  0.00    +0.000 HD
ATOM     13  H1  UNL     1       0.682   1.601   0.115  0.00  0.00    +0.000 HD
ENDROOT
BRANCH   1  14
ATOM     14  C11 UNK     0       1.650  -0.766  -1.370  0.00  0.00    +0.000 C 
ATOM     15  C13 UNK     0       1.837  -1.293   0.066  0.00  0.00    +0.000 C 
ATOM     16  C12 UNK     0       3.323  -1.276   0.457  0.00  0.00    +0.000 C 
ATOM     17  C14 UNK     0       3.854   0.171   0.398  0.00  0.00    +0.000 C 
ATOM     18  C18 UNK     0       3.501   0.857  -0.897  0.00  0.00    +0.000 C 
ATOM     19  C15 UNK     0       2.453   0.486  -1.650  0.00  0.00    +0.000 C 
BRANCH  16  20
ATOM     20  C17 UNK     0       3.521  -1.882   1.855  0.00  0.00    +0.000 C 
BRANCH  20  21
ATOM     21  O1  UNK     0       4.887  -1.947   2.162  0.00  0.00    +0.000 OA
ATOM     22  H40 UNK     0       4.946  -2.331   3.075  0.00  0.00    +0.000 HD
ENDBRANCH  20  21
ENDBRANCH  16  20
ENDBRANCH   1  14
BRANCH   5  23
ATOM     23  N2  UNK     0      -4.071   0.296  -0.561  0.00  0.00    +0.000 NA
ATOM     24  H32 UNK     0      -4.374  -0.470  -1.207  0.00  0.00    +0.000 HD
BRANCH  23  25
ATOM     25  C8  UNK     0      -3.606  -0.325   0.684  0.00  0.00    +0.000 C 
ATOM     26  C9  UNK     0      -4.753  -0.770   1.576  0.00  0.00    +0.000 C 
ATOM     27  C10 UNK     0      -3.948   0.468   1.934  0.00  0.00    +0.000 C 
ENDBRANCH  23  25
ENDBRANCH   5  23
TORSDOF 5
