REMARK  Name = C:\Users\Maximilian\Desktop\Conformers\converted_pdb\conformers_pdb\Lipid IVa_conf_35.pdb
REMARK  5 active torsions:
REMARK  status: ('A' for Active; 'I' for Inactive)
REMARK    1  A    between atoms: N3_1  and  C11_10
REMARK    2  A    between atoms: C16_5  and  N2_19
REMARK    3  A    between atoms: C12_12  and  C17_16
REMARK    4  A    between atoms: C17_16  and  O1_17
REMARK    5  A    between atoms: N2_19  and  C8_21
REMARK                            x       y       z     vdW  Elec       q    Type
REMARK                         _______ _______ _______ _____ _____    ______ ____
ROOT
ATOM      1  N3  UNK     0      -0.925   0.956   0.889  0.00  0.00    +0.000 N 
ATOM      2  N4  UNK     0       0.829   1.865  -0.227  0.00  0.00    +0.000 NA
ATOM      3  N5  UNK     0       2.566  -1.185   1.106  0.00  0.00    +0.000 NA
ATOM      4  N6  UNK     0       0.269  -1.044   1.749  0.00  0.00    +0.000 N 
ATOM      5  C16 UNK     0       2.542   0.032   0.262  0.00  0.00    +0.000 C 
ATOM      6  C19 UNK     0       0.147   0.152   0.988  0.00  0.00    +0.000 A 
ATOM      7  C20 UNK     0       1.191   0.689   0.318  0.00  0.00    +0.000 A 
ATOM      8  C21 UNK     0      -0.470   1.997   0.143  0.00  0.00    +0.000 A 
ATOM      9  C22 UNK     0       1.555  -1.686   1.771  0.00  0.00    +0.000 C 
ATOM     10  N7  UNK     0       1.739  -2.875   2.538  0.00  0.00    +0.000 N 
ATOM     11  H41 UNK     0       0.945  -3.285   3.077  0.00  0.00    +0.000 HD
ATOM     12  H42 UNK     0       2.669  -3.349   2.566  0.00  0.00    +0.000 HD
ATOM     13  H1  UNL     1      -0.528  -1.421   2.308  0.00  0.00    +0.000 HD
ENDROOT
BRANCH   1  14
ATOM     14  C11 UNK     0      -2.256   0.740   1.483  0.00  0.00    +0.000 C 
ATOM     15  C13 UNK     0      -2.993  -0.438   0.805  0.00  0.00    +0.000 C 
ATOM     16  C12 UNK     0      -3.652  -0.093  -0.569  0.00  0.00    +0.000 C 
ATOM     17  C14 UNK     0      -3.685   1.421  -0.900  0.00  0.00    +0.000 C 
ATOM     18  C18 UNK     0      -3.828   2.267   0.334  0.00  0.00    +0.000 C 
ATOM     19  C15 UNK     0      -3.120   1.979   1.433  0.00  0.00    +0.000 C 
BRANCH  16  20
ATOM     20  C17 UNK     0      -3.021  -0.898  -1.722  0.00  0.00    +0.000 C 
BRANCH  20  21
ATOM     21  O1  UNK     0      -1.637  -0.670  -1.803  0.00  0.00    +0.000 OA
ATOM     22  H40 UNK     0      -1.496   0.032  -2.489  0.00  0.00    +0.000 HD
ENDBRANCH  20  21
ENDBRANCH  16  20
ENDBRANCH   1  14
BRANCH   5  23
ATOM     23  N2  UNK     0       2.865  -0.322  -1.128  0.00  0.00    +0.000 NA
ATOM     24  H32 UNK     0       2.736   0.529  -1.727  0.00  0.00    +0.000 HD
BRANCH  23  25
ATOM     25  C8  UNK     0       4.252  -0.809  -1.214  0.00  0.00    +0.000 C 
ATOM     26  C9  UNK     0       5.303   0.247  -1.529  0.00  0.00    +0.000 C 
ATOM     27  C10 UNK     0       4.846  -0.720  -2.612  0.00  0.00    +0.000 C 
ENDBRANCH  23  25
ENDBRANCH   5  23
TORSDOF 5
