REMARK  Name = C:\Users\Maximilian\Desktop\Conformers\converted_pdb\conformers_pdb\Lipid IVa_conf_15.pdb
REMARK  5 active torsions:
REMARK  status: ('A' for Active; 'I' for Inactive)
REMARK    1  A    between atoms: N3_1  and  C11_10
REMARK    2  A    between atoms: C16_5  and  N2_19
REMARK    3  A    between atoms: C12_12  and  C17_16
REMARK    4  A    between atoms: C17_16  and  O1_17
REMARK    5  A    between atoms: N2_19  and  C8_21
REMARK                            x       y       z     vdW  Elec       q    Type
REMARK                         _______ _______ _______ _____ _____    ______ ____
ROOT
ATOM      1  N3  UNK     0      -0.594  -0.231   0.561  0.00  0.00    +0.000 N 
ATOM      2  N4  UNK     0       1.036   0.753   1.790  0.00  0.00    +0.000 NA
ATOM      3  N5  UNK     0       3.081  -0.068  -1.254  0.00  0.00    +0.000 NA
ATOM      4  N6  UNK     0       0.793  -0.736  -1.438  0.00  0.00    +0.000 N 
ATOM      5  C16 UNK     0       2.947   0.462   0.124  0.00  0.00    +0.000 C 
ATOM      6  C19 UNK     0       0.568  -0.275  -0.110  0.00  0.00    +0.000 A 
ATOM      7  C20 UNK     0       1.544   0.300   0.628  0.00  0.00    +0.000 A 
ATOM      8  C21 UNK     0      -0.276   0.414   1.712  0.00  0.00    +0.000 A 
ATOM      9  C22 UNK     0       2.124  -0.606  -1.968  0.00  0.00    +0.000 C 
ATOM     10  N7  UNK     0       2.409  -1.068  -3.288  0.00  0.00    +0.000 N 
ATOM     11  H41 UNK     0       3.371  -0.980  -3.685  0.00  0.00    +0.000 HD
ATOM     12  H42 UNK     0       1.658  -1.499  -3.871  0.00  0.00    +0.000 HD
ATOM     13  H1  UNL     1       0.026  -1.141  -2.018  0.00  0.00    +0.000 HD
ENDROOT
BRANCH   1  14
ATOM     14  C11 UNK     0      -1.929  -0.619   0.088  0.00  0.00    +0.000 C 
ATOM     15  C13 UNK     0      -2.688   0.615  -0.435  0.00  0.00    +0.000 C 
ATOM     16  C12 UNK     0      -4.169   0.308  -0.827  0.00  0.00    +0.000 C 
ATOM     17  C14 UNK     0      -4.684  -1.061  -0.294  0.00  0.00    +0.000 C 
ATOM     18  C18 UNK     0      -4.050  -1.436   1.019  0.00  0.00    +0.000 C 
ATOM     19  C15 UNK     0      -2.734  -1.265   1.190  0.00  0.00    +0.000 C 
BRANCH  16  20
ATOM     20  C17 UNK     0      -5.092   1.462  -0.384  0.00  0.00    +0.000 C 
BRANCH  20  21
ATOM     21  O1  UNK     0      -6.381   1.307  -0.916  0.00  0.00    +0.000 OA
ATOM     22  H40 UNK     0      -6.325   1.554  -1.876  0.00  0.00    +0.000 HD
ENDBRANCH  20  21
ENDBRANCH  16  20
ENDBRANCH   1  14
BRANCH   5  23
ATOM     23  N2  UNK     0       3.868  -0.234   1.030  0.00  0.00    +0.000 NA
ATOM     24  H32 UNK     0       3.779  -1.266   0.874  0.00  0.00    +0.000 HD
BRANCH  23  25
ATOM     25  C8  UNK     0       5.251   0.140   0.732  0.00  0.00    +0.000 C 
ATOM     26  C9  UNK     0       6.187  -0.098   1.903  0.00  0.00    +0.000 C 
ATOM     27  C10 UNK     0       5.755   1.316   1.550  0.00  0.00    +0.000 C 
ENDBRANCH  23  25
ENDBRANCH   5  23
TORSDOF 5
