REMARK  Name = C:\Users\Maximilian\Desktop\Conformers\converted_pdb\conformers_pdb\Lipid IVa_conf_62.pdb
REMARK  5 active torsions:
REMARK  status: ('A' for Active; 'I' for Inactive)
REMARK    1  A    between atoms: N3_1  and  C11_10
REMARK    2  A    between atoms: C16_5  and  N2_19
REMARK    3  A    between atoms: C12_12  and  C17_16
REMARK    4  A    between atoms: C17_16  and  O1_17
REMARK    5  A    between atoms: N2_19  and  C8_21
REMARK                            x       y       z     vdW  Elec       q    Type
REMARK                         _______ _______ _______ _____ _____    ______ ____
ROOT
ATOM      1  N3  UNK     0      -0.548   1.477   0.214  0.00  0.00    +0.000 N 
ATOM      2  N4  UNK     0       1.485   2.108   0.986  0.00  0.00    +0.000 NA
ATOM      3  N5  UNK     0       2.590  -0.796  -1.129  0.00  0.00    +0.000 NA
ATOM      4  N6  UNK     0       0.225  -0.457  -1.145  0.00  0.00    +0.000 N 
ATOM      5  C16 UNK     0       2.875   0.298  -0.171  0.00  0.00    +0.000 C 
ATOM      6  C19 UNK     0       0.396   0.649  -0.267  0.00  0.00    +0.000 A 
ATOM      7  C20 UNK     0       1.611   1.028   0.190  0.00  0.00    +0.000 A 
ATOM      8  C21 UNK     0       0.149   2.350   0.980  0.00  0.00    +0.000 A 
ATOM      9  C22 UNK     0       1.409  -1.155  -1.567  0.00  0.00    +0.000 C 
ATOM     10  N7  UNK     0       1.300  -2.244  -2.482  0.00  0.00    +0.000 N 
ATOM     11  H41 UNK     0       0.367  -2.540  -2.844  0.00  0.00    +0.000 HD
ATOM     12  H42 UNK     0       2.153  -2.757  -2.799  0.00  0.00    +0.000 HD
ATOM     13  H1  UNL     1      -0.717  -0.746  -1.490  0.00  0.00    +0.000 HD
ENDROOT
BRANCH   1  14
ATOM     14  C11 UNK     0      -2.002   1.445   0.024  0.00  0.00    +0.000 C 
ATOM     15  C13 UNK     0      -2.613   0.244   0.770  0.00  0.00    +0.000 C 
ATOM     16  C12 UNK     0      -4.081   0.043   0.355  0.00  0.00    +0.000 C 
ATOM     17  C14 UNK     0      -4.152  -0.240  -1.157  0.00  0.00    +0.000 C 
ATOM     18  C18 UNK     0      -3.370   0.766  -1.964  0.00  0.00    +0.000 C 
ATOM     19  C15 UNK     0      -2.343   1.462  -1.451  0.00  0.00    +0.000 C 
BRANCH  16  20
ATOM     20  C17 UNK     0      -4.732  -1.106   1.147  0.00  0.00    +0.000 C 
BRANCH  20  21
ATOM     21  O1  UNK     0      -4.769  -0.810   2.517  0.00  0.00    +0.000 OA
ATOM     22  H40 UNK     0      -5.486  -0.136   2.643  0.00  0.00    +0.000 HD
ENDBRANCH  20  21
ENDBRANCH  16  20
ENDBRANCH   1  14
BRANCH   5  23
ATOM     23  N2  UNK     0       3.495  -0.254   1.041  0.00  0.00    +0.000 NA
ATOM     24  H32 UNK     0       3.592   0.516   1.746  0.00  0.00    +0.000 HD
BRANCH  23  25
ATOM     25  C8  UNK     0       4.814  -0.826   0.717  0.00  0.00    +0.000 C 
ATOM     26  C9  UNK     0       5.739  -0.952   1.919  0.00  0.00    +0.000 C 
ATOM     27  C10 UNK     0       5.997   0.120   0.869  0.00  0.00    +0.000 C 
ENDBRANCH  23  25
ENDBRANCH   5  23
TORSDOF 5
