REMARK  Name = C:\Users\Maximilian\Desktop\Conformers\converted_pdb\conformers_pdb\Lipid IVa_conf_54.pdb
REMARK  5 active torsions:
REMARK  status: ('A' for Active; 'I' for Inactive)
REMARK    1  A    between atoms: N3_1  and  C11_10
REMARK    2  A    between atoms: C16_5  and  N2_19
REMARK    3  A    between atoms: C12_12  and  C17_16
REMARK    4  A    between atoms: C17_16  and  O1_17
REMARK    5  A    between atoms: N2_19  and  C8_21
REMARK                            x       y       z     vdW  Elec       q    Type
REMARK                         _______ _______ _______ _____ _____    ______ ____
ROOT
ATOM      1  N3  UNK     0      -0.458   0.505   0.567  0.00  0.00    +0.000 N 
ATOM      2  N4  UNK     0       0.894   2.324   0.628  0.00  0.00    +0.000 NA
ATOM      3  N5  UNK     0       3.082   0.093  -1.471  0.00  0.00    +0.000 NA
ATOM      4  N6  UNK     0       1.015  -0.926  -0.831  0.00  0.00    +0.000 N 
ATOM      5  C16 UNK     0       2.835   1.348  -0.729  0.00  0.00    +0.000 C 
ATOM      6  C19 UNK     0       0.685   0.241  -0.085  0.00  0.00    +0.000 A 
ATOM      7  C20 UNK     0       1.498   1.320  -0.038  0.00  0.00    +0.000 A 
ATOM      8  C21 UNK     0      -0.304   1.789   0.979  0.00  0.00    +0.000 A 
ATOM      9  C22 UNK     0       2.276  -0.938  -1.525  0.00  0.00    +0.000 C 
ATOM     10  N7  UNK     0       2.654  -2.086  -2.283  0.00  0.00    +0.000 N 
ATOM     11  H41 UNK     0       3.568  -2.110  -2.789  0.00  0.00    +0.000 HD
ATOM     12  H42 UNK     0       2.024  -2.916  -2.337  0.00  0.00    +0.000 HD
ATOM     13  H1  UNL     1       0.364  -1.738  -0.894  0.00  0.00    +0.000 HD
ENDROOT
BRANCH   1  14
ATOM     14  C11 UNK     0      -1.664  -0.327   0.652  0.00  0.00    +0.000 C 
ATOM     15  C13 UNK     0      -2.607   0.002  -0.518  0.00  0.00    +0.000 C 
ATOM     16  C12 UNK     0      -3.976  -0.671  -0.311  0.00  0.00    +0.000 C 
ATOM     17  C14 UNK     0      -4.618  -0.139   0.985  0.00  0.00    +0.000 C 
ATOM     18  C18 UNK     0      -3.666  -0.168   2.154  0.00  0.00    +0.000 C 
ATOM     19  C15 UNK     0      -2.332  -0.162   2.001  0.00  0.00    +0.000 C 
BRANCH  16  20
ATOM     20  C17 UNK     0      -4.910  -0.427  -1.510  0.00  0.00    +0.000 C 
BRANCH  20  21
ATOM     21  O1  UNK     0      -4.424  -1.077  -2.655  0.00  0.00    +0.000 OA
ATOM     22  H40 UNK     0      -3.880  -0.415  -3.156  0.00  0.00    +0.000 HD
ENDBRANCH  20  21
ENDBRANCH  16  20
ENDBRANCH   1  14
BRANCH   5  23
ATOM     23  N2  UNK     0       3.936   1.607   0.214  0.00  0.00    +0.000 NA
ATOM     24  H32 UNK     0       3.740   2.501   0.722  0.00  0.00    +0.000 HD
BRANCH  23  25
ATOM     25  C8  UNK     0       4.061   0.542   1.215  0.00  0.00    +0.000 C 
ATOM     26  C9  UNK     0       5.405   0.561   1.922  0.00  0.00    +0.000 C 
ATOM     27  C10 UNK     0       5.111  -0.502   0.877  0.00  0.00    +0.000 C 
ENDBRANCH  23  25
ENDBRANCH   5  23
TORSDOF 5
