REMARK  Name = C:\Users\Maximilian\Desktop\Conformers\converted_pdb\conformers_pdb\Lipid IVa_conf_9.pdb
REMARK  5 active torsions:
REMARK  status: ('A' for Active; 'I' for Inactive)
REMARK    1  A    between atoms: N3_1  and  C11_10
REMARK    2  A    between atoms: C16_5  and  N2_19
REMARK    3  A    between atoms: C12_12  and  C17_16
REMARK    4  A    between atoms: C17_16  and  O1_17
REMARK    5  A    between atoms: N2_19  and  C8_21
REMARK                            x       y       z     vdW  Elec       q    Type
REMARK                         _______ _______ _______ _____ _____    ______ ____
ROOT
ATOM      1  N3  UNK     0      -0.671  -1.601   0.119  0.00  0.00    +0.000 N 
ATOM      2  N4  UNK     0       1.275  -2.680  -0.305  0.00  0.00    +0.000 NA
ATOM      3  N5  UNK     0       2.476   0.837  -0.867  0.00  0.00    +0.000 NA
ATOM      4  N6  UNK     0       0.171   0.710  -0.249  0.00  0.00    +0.000 N 
ATOM      5  C16 UNK     0       2.715  -0.622  -0.768  0.00  0.00    +0.000 C 
ATOM      6  C19 UNK     0       0.291  -0.706  -0.162  0.00  0.00    +0.000 A 
ATOM      7  C20 UNK     0       1.453  -1.349  -0.412  0.00  0.00    +0.000 A 
ATOM      8  C21 UNK     0      -0.039  -2.796   0.019  0.00  0.00    +0.000 A 
ATOM      9  C22 UNK     0       1.343   1.450  -0.630  0.00  0.00    +0.000 C 
ATOM     10  N7  UNK     0       1.272   2.869  -0.760  0.00  0.00    +0.000 N 
ATOM     11  H41 UNK     0       0.375   3.373  -0.579  0.00  0.00    +0.000 HD
ATOM     12  H42 UNK     0       2.115   3.420  -1.036  0.00  0.00    +0.000 HD
ATOM     13  H1  UNL     1      -0.733   1.196  -0.064  0.00  0.00    +0.000 HD
ENDROOT
BRANCH   1  14
ATOM     14  C11 UNK     0      -2.094  -1.381   0.401  0.00  0.00    +0.000 C 
ATOM     15  C13 UNK     0      -2.838  -0.893  -0.871  0.00  0.00    +0.000 C 
ATOM     16  C12 UNK     0      -4.171  -0.122  -0.592  0.00  0.00    +0.000 C 
ATOM     17  C14 UNK     0      -4.619  -0.233   0.884  0.00  0.00    +0.000 C 
ATOM     18  C18 UNK     0      -3.476   0.095   1.803  0.00  0.00    +0.000 C 
ATOM     19  C15 UNK     0      -2.271  -0.432   1.562  0.00  0.00    +0.000 C 
BRANCH  16  20
ATOM     20  C17 UNK     0      -4.065   1.357  -1.013  0.00  0.00    +0.000 C 
BRANCH  20  21
ATOM     21  O1  UNK     0      -3.857   1.449  -2.396  0.00  0.00    +0.000 OA
ATOM     22  H40 UNK     0      -3.769   2.416  -2.598  0.00  0.00    +0.000 HD
ENDBRANCH  20  21
ENDBRANCH  16  20
ENDBRANCH   1  14
BRANCH   5  23
ATOM     23  N2  UNK     0       3.737  -0.900   0.248  0.00  0.00    +0.000 NA
ATOM     24  H32 UNK     0       3.447  -0.446   1.148  0.00  0.00    +0.000 HD
BRANCH  23  25
ATOM     25  C8  UNK     0       5.050  -0.414  -0.207  0.00  0.00    +0.000 C 
ATOM     26  C9  UNK     0       6.085  -0.354   0.906  0.00  0.00    +0.000 C 
ATOM     27  C10 UNK     0       5.489   0.933   0.352  0.00  0.00    +0.000 C 
ENDBRANCH  23  25
ENDBRANCH   5  23
TORSDOF 5
