REMARK  Name = C:\Users\Maximilian\Desktop\Conformers\converted_pdb\conformers_pdb\Lipid IVa_conf_22.pdb
REMARK  5 active torsions:
REMARK  status: ('A' for Active; 'I' for Inactive)
REMARK    1  A    between atoms: N3_1  and  C11_10
REMARK    2  A    between atoms: C16_5  and  N2_19
REMARK    3  A    between atoms: C12_12  and  C17_16
REMARK    4  A    between atoms: C17_16  and  O1_17
REMARK    5  A    between atoms: N2_19  and  C8_21
REMARK                            x       y       z     vdW  Elec       q    Type
REMARK                         _______ _______ _______ _____ _____    ______ ____
ROOT
ATOM      1  N3  UNK     0      -0.273   0.440   0.588  0.00  0.00    +0.000 N 
ATOM      2  N4  UNK     0       1.282   2.085   0.458  0.00  0.00    +0.000 NA
ATOM      3  N5  UNK     0       2.766  -0.263  -2.082  0.00  0.00    +0.000 NA
ATOM      4  N6  UNK     0       0.732  -1.065  -1.113  0.00  0.00    +0.000 N 
ATOM      5  C16 UNK     0       2.791   0.990  -1.294  0.00  0.00    +0.000 C 
ATOM      6  C19 UNK     0       0.689   0.087  -0.278  0.00  0.00    +0.000 A 
ATOM      7  C20 UNK     0       1.625   1.061  -0.344  0.00  0.00    +0.000 A 
ATOM      8  C21 UNK     0       0.113   1.670   1.012  0.00  0.00    +0.000 A 
ATOM      9  C22 UNK     0       1.845  -1.192  -2.016  0.00  0.00    +0.000 C 
ATOM     10  N7  UNK     0       1.960  -2.353  -2.837  0.00  0.00    +0.000 N 
ATOM     11  H41 UNK     0       2.765  -2.461  -3.494  0.00  0.00    +0.000 HD
ATOM     12  H42 UNK     0       1.247  -3.114  -2.782  0.00  0.00    +0.000 HD
ATOM     13  H1  UNL     1      -0.014  -1.794  -1.080  0.00  0.00    +0.000 HD
ENDROOT
BRANCH   1  14
ATOM     14  C11 UNK     0      -1.544  -0.241   0.856  0.00  0.00    +0.000 C 
ATOM     15  C13 UNK     0      -2.629   0.289  -0.097  0.00  0.00    +0.000 C 
ATOM     16  C12 UNK     0      -4.016  -0.218   0.334  0.00  0.00    +0.000 C 
ATOM     17  C14 UNK     0      -4.338   0.291   1.751  0.00  0.00    +0.000 C 
ATOM     18  C18 UNK     0      -3.204   0.052   2.715  0.00  0.00    +0.000 C 
ATOM     19  C15 UNK     0      -1.930  -0.096   2.314  0.00  0.00    +0.000 C 
BRANCH  16  20
ATOM     20  C17 UNK     0      -5.105   0.193  -0.670  0.00  0.00    +0.000 C 
BRANCH  20  21
ATOM     21  O1  UNK     0      -5.170   1.588  -0.793  0.00  0.00    +0.000 OA
ATOM     22  H40 UNK     0      -5.909   1.775  -1.430  0.00  0.00    +0.000 HD
ENDBRANCH  20  21
ENDBRANCH  16  20
ENDBRANCH   1  14
BRANCH   5  23
ATOM     23  N2  UNK     0       4.080   1.127  -0.597  0.00  0.00    +0.000 NA
ATOM     24  H32 UNK     0       4.070   2.019  -0.048  0.00  0.00    +0.000 HD
BRANCH  23  25
ATOM     25  C8  UNK     0       4.313   0.024   0.342  0.00  0.00    +0.000 C 
ATOM     26  C9  UNK     0       5.767  -0.084   0.766  0.00  0.00    +0.000 C 
ATOM     27  C10 UNK     0       5.185  -1.086  -0.217  0.00  0.00    +0.000 C 
ENDBRANCH  23  25
ENDBRANCH   5  23
TORSDOF 5
