REMARK  Name = C:\Users\Maximilian\Desktop\Conformers\converted_pdb\conformers_pdb\Lipid IVa_conf_46.pdb
REMARK  5 active torsions:
REMARK  status: ('A' for Active; 'I' for Inactive)
REMARK    1  A    between atoms: N3_1  and  C11_10
REMARK    2  A    between atoms: C16_5  and  N2_19
REMARK    3  A    between atoms: C12_12  and  C17_16
REMARK    4  A    between atoms: C17_16  and  O1_17
REMARK    5  A    between atoms: N2_19  and  C8_21
REMARK                            x       y       z     vdW  Elec       q    Type
REMARK                         _______ _______ _______ _____ _____    ______ ____
ROOT
ATOM      1  N3  UNK     0       0.495  -0.798   0.570  0.00  0.00    +0.000 N 
ATOM      2  N4  UNK     0      -1.511  -1.656  -0.043  0.00  0.00    +0.000 NA
ATOM      3  N5  UNK     0      -2.759   1.291   1.920  0.00  0.00    +0.000 NA
ATOM      4  N6  UNK     0      -0.376   1.193   1.775  0.00  0.00    +0.000 N 
ATOM      5  C16 UNK     0      -2.992   0.161   0.991  0.00  0.00    +0.000 C 
ATOM      6  C19 UNK     0      -0.493  -0.004   1.015  0.00  0.00    +0.000 A 
ATOM      7  C20 UNK     0      -1.692  -0.522   0.663  0.00  0.00    +0.000 A 
ATOM      8  C21 UNK     0      -0.161  -1.789  -0.086  0.00  0.00    +0.000 A 
ATOM      9  C22 UNK     0      -1.594   1.788   2.255  0.00  0.00    +0.000 C 
ATOM     10  N7  UNK     0      -1.536   2.908   3.137  0.00  0.00    +0.000 N 
ATOM     11  H41 UNK     0      -0.615   3.302   3.433  0.00  0.00    +0.000 HD
ATOM     12  H42 UNK     0      -2.412   3.334   3.511  0.00  0.00    +0.000 HD
ATOM     13  H1  UNL     1       0.551   1.608   2.013  0.00  0.00    +0.000 HD
ENDROOT
BRANCH   1  14
ATOM     14  C11 UNK     0       1.943  -0.576   0.635  0.00  0.00    +0.000 C 
ATOM     15  C13 UNK     0       2.430   0.071  -0.673  0.00  0.00    +0.000 C 
ATOM     16  C12 UNK     0       3.967   0.083  -0.729  0.00  0.00    +0.000 C 
ATOM     17  C14 UNK     0       4.495  -1.364  -0.687  0.00  0.00    +0.000 C 
ATOM     18  C18 UNK     0       3.862  -2.177   0.415  0.00  0.00    +0.000 C 
ATOM     19  C15 UNK     0       2.666  -1.870   0.944  0.00  0.00    +0.000 C 
BRANCH  16  20
ATOM     20  C17 UNK     0       4.474   0.800  -1.994  0.00  0.00    +0.000 C 
BRANCH  20  21
ATOM     21  O1  UNK     0       4.086   2.148  -1.992  0.00  0.00    +0.000 OA
ATOM     22  H40 UNK     0       4.680   2.614  -1.348  0.00  0.00    +0.000 HD
ENDBRANCH  20  21
ENDBRANCH  16  20
ENDBRANCH   1  14
BRANCH   5  23
ATOM     23  N2  UNK     0      -3.617   0.669  -0.241  0.00  0.00    +0.000 NA
ATOM     24  H32 UNK     0      -4.271   1.447   0.016  0.00  0.00    +0.000 HD
BRANCH  23  25
ATOM     25  C8  UNK     0      -4.343  -0.405  -0.942  0.00  0.00    +0.000 C 
ATOM     26  C9  UNK     0      -5.457   0.097  -1.850  0.00  0.00    +0.000 C 
ATOM     27  C10 UNK     0      -5.798  -0.588  -0.534  0.00  0.00    +0.000 C 
ENDBRANCH  23  25
ENDBRANCH   5  23
TORSDOF 5
