REMARK  Name = C:\Users\Maximilian\Desktop\Conformers\converted_pdb\conformers_pdb\Lipid IVa_conf_42.pdb
REMARK  5 active torsions:
REMARK  status: ('A' for Active; 'I' for Inactive)
REMARK    1  A    between atoms: N3_1  and  C11_10
REMARK    2  A    between atoms: C16_5  and  N2_19
REMARK    3  A    between atoms: C12_12  and  C17_16
REMARK    4  A    between atoms: C17_16  and  O1_17
REMARK    5  A    between atoms: N2_19  and  C8_21
REMARK                            x       y       z     vdW  Elec       q    Type
REMARK                         _______ _______ _______ _____ _____    ______ ____
ROOT
ATOM      1  N3  UNK     0       0.454   0.462   0.690  0.00  0.00    +0.000 N 
ATOM      2  N4  UNK     0      -1.429  -0.330   1.672  0.00  0.00    +0.000 NA
ATOM      3  N5  UNK     0      -3.052   1.846  -0.928  0.00  0.00    +0.000 NA
ATOM      4  N6  UNK     0      -0.666   1.824  -1.062  0.00  0.00    +0.000 N 
ATOM      5  C16 UNK     0      -3.130   0.833   0.145  0.00  0.00    +0.000 C 
ATOM      6  C19 UNK     0      -0.627   0.950   0.060  0.00  0.00    +0.000 A 
ATOM      7  C20 UNK     0      -1.752   0.488   0.653  0.00  0.00    +0.000 A 
ATOM      8  C21 UNK     0      -0.071  -0.329   1.660  0.00  0.00    +0.000 A 
ATOM      9  C22 UNK     0      -1.957   2.284  -1.497  0.00  0.00    +0.000 C 
ATOM     10  N7  UNK     0      -2.048   3.249  -2.544  0.00  0.00    +0.000 N 
ATOM     11  H41 UNK     0      -1.185   3.620  -3.000  0.00  0.00    +0.000 HD
ATOM     12  H42 UNK     0      -2.979   3.597  -2.865  0.00  0.00    +0.000 HD
ATOM     13  H1  UNL     1       0.204   2.154  -1.535  0.00  0.00    +0.000 HD
ENDROOT
BRANCH   1  14
ATOM     14  C11 UNK     0       1.868   0.615   0.325  0.00  0.00    +0.000 C 
ATOM     15  C13 UNK     0       2.357  -0.631  -0.439  0.00  0.00    +0.000 C 
ATOM     16  C12 UNK     0       3.891  -0.610  -0.737  0.00  0.00    +0.000 C 
ATOM     17  C14 UNK     0       4.668   0.463   0.079  0.00  0.00    +0.000 C 
ATOM     18  C18 UNK     0       4.057   0.704   1.433  0.00  0.00    +0.000 C 
ATOM     19  C15 UNK     0       2.729   0.817   1.548  0.00  0.00    +0.000 C 
BRANCH  16  20
ATOM     20  C17 UNK     0       4.497  -2.010  -0.534  0.00  0.00    +0.000 C 
BRANCH  20  21
ATOM     21  O1  UNK     0       5.802  -2.050  -1.043  0.00  0.00    +0.000 OA
ATOM     22  H40 UNK     0       6.143  -2.964  -0.856  0.00  0.00    +0.000 HD
ENDBRANCH  20  21
ENDBRANCH  16  20
ENDBRANCH   1  14
BRANCH   5  23
ATOM     23  N2  UNK     0      -3.820  -0.353  -0.385  0.00  0.00    +0.000 NA
ATOM     24  H32 UNK     0      -3.148  -0.943  -0.930  0.00  0.00    +0.000 HD
BRANCH  23  25
ATOM     25  C8  UNK     0      -4.381  -1.170   0.693  0.00  0.00    +0.000 C 
ATOM     26  C9  UNK     0      -5.561  -2.007   0.232  0.00  0.00    +0.000 C 
ATOM     27  C10 UNK     0      -5.792  -0.776   1.093  0.00  0.00    +0.000 C 
ENDBRANCH  23  25
ENDBRANCH   5  23
TORSDOF 5
