REMARK  Name = C:\Users\Maximilian\Desktop\Conformers\converted_pdb\conformers_pdb\Lipid IVa_conf_14.pdb
REMARK  5 active torsions:
REMARK  status: ('A' for Active; 'I' for Inactive)
REMARK    1  A    between atoms: N3_1  and  C11_10
REMARK    2  A    between atoms: C16_5  and  N2_19
REMARK    3  A    between atoms: C12_12  and  C17_16
REMARK    4  A    between atoms: C17_16  and  O1_17
REMARK    5  A    between atoms: N2_19  and  C8_21
REMARK                            x       y       z     vdW  Elec       q    Type
REMARK                         _______ _______ _______ _____ _____    ______ ____
ROOT
ATOM      1  N3  UNK     0      -0.649  -0.843   1.045  0.00  0.00    +0.000 N 
ATOM      2  N4  UNK     0       1.005  -0.211   2.460  0.00  0.00    +0.000 NA
ATOM      3  N5  UNK     0       3.140  -1.147  -0.487  0.00  0.00    +0.000 NA
ATOM      4  N6  UNK     0       0.798  -1.390  -0.897  0.00  0.00    +0.000 N 
ATOM      5  C16 UNK     0       2.978  -0.608   0.883  0.00  0.00    +0.000 C 
ATOM      6  C19 UNK     0       0.541  -0.983   0.441  0.00  0.00    +0.000 A 
ATOM      7  C20 UNK     0       1.531  -0.620   1.289  0.00  0.00    +0.000 A 
ATOM      8  C21 UNK     0      -0.332  -0.355   2.271  0.00  0.00    +0.000 A 
ATOM      9  C22 UNK     0       2.174  -1.484  -1.305  0.00  0.00    +0.000 C 
ATOM     10  N7  UNK     0       2.494  -1.964  -2.610  0.00  0.00    +0.000 N 
ATOM     11  H41 UNK     0       3.489  -2.039  -2.918  0.00  0.00    +0.000 HD
ATOM     12  H42 UNK     0       1.737  -2.243  -3.272  0.00  0.00    +0.000 HD
ATOM     13  H1  UNL     1       0.027  -1.632  -1.557  0.00  0.00    +0.000 HD
ENDROOT
BRANCH   1  14
ATOM     14  C11 UNK     0      -1.986  -1.006   0.461  0.00  0.00    +0.000 C 
ATOM     15  C13 UNK     0      -2.466   0.335  -0.121  0.00  0.00    +0.000 C 
ATOM     16  C12 UNK     0      -3.952   0.248  -0.508  0.00  0.00    +0.000 C 
ATOM     17  C14 UNK     0      -4.799  -0.055   0.743  0.00  0.00    +0.000 C 
ATOM     18  C18 UNK     0      -4.241  -1.204   1.546  0.00  0.00    +0.000 C 
ATOM     19  C15 UNK     0      -2.951  -1.572   1.483  0.00  0.00    +0.000 C 
BRANCH  16  20
ATOM     20  C17 UNK     0      -4.429   1.528  -1.213  0.00  0.00    +0.000 C 
BRANCH  20  21
ATOM     21  O1  UNK     0      -4.267   2.646  -0.382  0.00  0.00    +0.000 OA
ATOM     22  H40 UNK     0      -4.594   3.425  -0.902  0.00  0.00    +0.000 HD
ENDBRANCH  20  21
ENDBRANCH  16  20
ENDBRANCH   1  14
BRANCH   5  23
ATOM     23  N2  UNK     0       3.492   0.767   0.941  0.00  0.00    +0.000 NA
ATOM     24  H32 UNK     0       3.380   1.116   1.922  0.00  0.00    +0.000 HD
BRANCH  23  25
ATOM     25  C8  UNK     0       4.930   0.782   0.664  0.00  0.00    +0.000 C 
ATOM     26  C9  UNK     0       5.456   2.177   0.369  0.00  0.00    +0.000 C 
ATOM     27  C10 UNK     0       5.275   1.178  -0.762  0.00  0.00    +0.000 C 
ENDBRANCH  23  25
ENDBRANCH   5  23
TORSDOF 5
