REMARK  Name = C:\Users\Maximilian\Desktop\Conformers\converted_pdb\conformers_pdb\Lipid IVa_conf_65.pdb
REMARK  5 active torsions:
REMARK  status: ('A' for Active; 'I' for Inactive)
REMARK    1  A    between atoms: N3_1  and  C11_10
REMARK    2  A    between atoms: C16_5  and  N2_19
REMARK    3  A    between atoms: C12_12  and  C17_16
REMARK    4  A    between atoms: C17_16  and  O1_17
REMARK    5  A    between atoms: N2_19  and  C8_21
REMARK                            x       y       z     vdW  Elec       q    Type
REMARK                         _______ _______ _______ _____ _____    ______ ____
ROOT
ATOM      1  N3  UNK     0       0.465  -0.817  -0.567  0.00  0.00    +0.000 N 
ATOM      2  N4  UNK     0      -1.418  -0.388  -1.756  0.00  0.00    +0.000 NA
ATOM      3  N5  UNK     0      -2.970  -0.578   1.663  0.00  0.00    +0.000 NA
ATOM      4  N6  UNK     0      -0.601  -0.896   1.677  0.00  0.00    +0.000 N 
ATOM      5  C16 UNK     0      -3.063  -0.387   0.196  0.00  0.00    +0.000 C 
ATOM      6  C19 UNK     0      -0.593  -0.780   0.258  0.00  0.00    +0.000 A 
ATOM      7  C20 UNK     0      -1.719  -0.537  -0.451  0.00  0.00    +0.000 A 
ATOM      8  C21 UNK     0      -0.071  -0.560  -1.788  0.00  0.00    +0.000 A 
ATOM      9  C22 UNK     0      -1.872  -0.799   2.343  0.00  0.00    +0.000 C 
ATOM     10  N7  UNK     0      -1.942  -0.950   3.760  0.00  0.00    +0.000 N 
ATOM     11  H41 UNK     0      -2.859  -0.882   4.255  0.00  0.00    +0.000 HD
ATOM     12  H42 UNK     0      -1.077  -1.129   4.316  0.00  0.00    +0.000 HD
ATOM     13  H1  UNL     1       0.276  -1.047   2.222  0.00  0.00    +0.000 HD
ENDROOT
BRANCH   1  14
ATOM     14  C11 UNK     0       1.886  -0.932  -0.217  0.00  0.00    +0.000 C 
ATOM     15  C13 UNK     0       2.537   0.464  -0.171  0.00  0.00    +0.000 C 
ATOM     16  C12 UNK     0       4.082   0.417   0.059  0.00  0.00    +0.000 C 
ATOM     17  C14 UNK     0       4.700  -0.995  -0.155  0.00  0.00    +0.000 C 
ATOM     18  C18 UNK     0       3.966  -1.787  -1.203  0.00  0.00    +0.000 C 
ATOM     19  C15 UNK     0       2.628  -1.792  -1.211  0.00  0.00    +0.000 C 
BRANCH  16  20
ATOM     20  C17 UNK     0       4.788   1.473  -0.815  0.00  0.00    +0.000 C 
BRANCH  20  21
ATOM     21  O1  UNK     0       6.141   1.594  -0.464  0.00  0.00    +0.000 OA
ATOM     22  H40 UNK     0       6.169   2.100   0.390  0.00  0.00    +0.000 HD
ENDBRANCH  20  21
ENDBRANCH  16  20
ENDBRANCH   1  14
BRANCH   5  23
ATOM     23  N2  UNK     0      -3.599   0.945  -0.110  0.00  0.00    +0.000 NA
ATOM     24  H32 UNK     0      -3.084   1.655   0.461  0.00  0.00    +0.000 HD
BRANCH  23  25
ATOM     25  C8  UNK     0      -5.013   1.019   0.261  0.00  0.00    +0.000 C 
ATOM     26  C9  UNK     0      -5.961   0.668  -0.872  0.00  0.00    +0.000 C 
ATOM     27  C10 UNK     0      -5.755   2.121  -0.475  0.00  0.00    +0.000 C 
ENDBRANCH  23  25
ENDBRANCH   5  23
TORSDOF 5
