REMARK  Name = C:\Users\Maximilian\Desktop\Conformers\converted_pdb\conformers_pdb\Lipid IVa_conf_56.pdb
REMARK  5 active torsions:
REMARK  status: ('A' for Active; 'I' for Inactive)
REMARK    1  A    between atoms: N3_1  and  C11_10
REMARK    2  A    between atoms: C16_5  and  N2_19
REMARK    3  A    between atoms: C12_12  and  C17_16
REMARK    4  A    between atoms: C17_16  and  O1_17
REMARK    5  A    between atoms: N2_19  and  C8_21
REMARK                            x       y       z     vdW  Elec       q    Type
REMARK                         _______ _______ _______ _____ _____    ______ ____
ROOT
ATOM      1  N3  UNK     0      -0.474  -0.173   0.842  0.00  0.00    +0.000 N 
ATOM      2  N4  UNK     0       1.308   1.107   1.406  0.00  0.00    +0.000 NA
ATOM      3  N5  UNK     0       3.088  -1.345  -0.816  0.00  0.00    +0.000 NA
ATOM      4  N6  UNK     0       0.736  -1.738  -0.664  0.00  0.00    +0.000 N 
ATOM      5  C16 UNK     0       3.078  -0.139   0.043  0.00  0.00    +0.000 C 
ATOM      6  C19 UNK     0       0.629  -0.639   0.234  0.00  0.00    +0.000 A 
ATOM      7  C20 UNK     0       1.696   0.118   0.579  0.00  0.00    +0.000 A 
ATOM      8  C21 UNK     0      -0.027   0.903   1.538  0.00  0.00    +0.000 A 
ATOM      9  C22 UNK     0       2.047  -2.065  -1.154  0.00  0.00    +0.000 C 
ATOM     10  N7  UNK     0       2.222  -3.195  -2.008  0.00  0.00    +0.000 N 
ATOM     11  H41 UNK     0       1.405  -3.784  -2.280  0.00  0.00    +0.000 HD
ATOM     12  H42 UNK     0       3.170  -3.446  -2.368  0.00  0.00    +0.000 HD
ATOM     13  H1  UNL     1      -0.096  -2.298  -0.951  0.00  0.00    +0.000 HD
ENDROOT
BRANCH   1  14
ATOM     14  C11 UNK     0      -1.862  -0.625   0.680  0.00  0.00    +0.000 C 
ATOM     15  C13 UNK     0      -2.606   0.286  -0.319  0.00  0.00    +0.000 C 
ATOM     16  C12 UNK     0      -4.145   0.013  -0.393  0.00  0.00    +0.000 C 
ATOM     17  C14 UNK     0      -4.651  -0.964   0.704  0.00  0.00    +0.000 C 
ATOM     18  C18 UNK     0      -3.924  -0.764   2.006  0.00  0.00    +0.000 C 
ATOM     19  C15 UNK     0      -2.593  -0.629   2.001  0.00  0.00    +0.000 C 
BRANCH  16  20
ATOM     20  C17 UNK     0      -4.931   1.338  -0.361  0.00  0.00    +0.000 C 
BRANCH  20  21
ATOM     21  O1  UNK     0      -6.278   1.117  -0.693  0.00  0.00    +0.000 OA
ATOM     22  H40 UNK     0      -6.816   1.287   0.123  0.00  0.00    +0.000 HD
ENDBRANCH  20  21
ENDBRANCH  16  20
ENDBRANCH   1  14
BRANCH   5  23
ATOM     23  N2  UNK     0       3.537   1.024  -0.731  0.00  0.00    +0.000 NA
ATOM     24  H32 UNK     0       3.420   1.884  -0.142  0.00  0.00    +0.000 HD
BRANCH  23  25
ATOM     25  C8  UNK     0       4.950   0.848  -1.111  0.00  0.00    +0.000 C 
ATOM     26  C9  UNK     0       5.970   1.424  -0.138  0.00  0.00    +0.000 C 
ATOM     27  C10 UNK     0       5.663   2.152  -1.440  0.00  0.00    +0.000 C 
ENDBRANCH  23  25
ENDBRANCH   5  23
TORSDOF 5
