REMARK  Name = C:\Users\Maximilian\Desktop\Conformers\converted_pdb\conformers_pdb\Lipid IVa_conf_70.pdb
REMARK  5 active torsions:
REMARK  status: ('A' for Active; 'I' for Inactive)
REMARK    1  A    between atoms: N3_1  and  C11_10
REMARK    2  A    between atoms: C16_5  and  N2_19
REMARK    3  A    between atoms: C12_12  and  C17_16
REMARK    4  A    between atoms: C17_16  and  O1_17
REMARK    5  A    between atoms: N2_19  and  C8_21
REMARK                            x       y       z     vdW  Elec       q    Type
REMARK                         _______ _______ _______ _____ _____    ______ ____
ROOT
ATOM      1  N3  UNK     0      -0.587  -0.826   1.088  0.00  0.00    +0.000 N 
ATOM      2  N4  UNK     0       0.991  -0.194   2.588  0.00  0.00    +0.000 NA
ATOM      3  N5  UNK     0       3.270  -1.742   0.022  0.00  0.00    +0.000 NA
ATOM      4  N6  UNK     0       0.960  -1.807  -0.591  0.00  0.00    +0.000 N 
ATOM      5  C16 UNK     0       3.033  -1.050   1.310  0.00  0.00    +0.000 C 
ATOM      6  C19 UNK     0       0.625  -1.209   0.658  0.00  0.00    +0.000 A 
ATOM      7  C20 UNK     0       1.566  -0.843   1.557  0.00  0.00    +0.000 A 
ATOM      8  C21 UNK     0      -0.328  -0.200   2.264  0.00  0.00    +0.000 A 
ATOM      9  C22 UNK     0       2.349  -2.080  -0.846  0.00  0.00    +0.000 C 
ATOM     10  N7  UNK     0       2.732  -2.726  -2.060  0.00  0.00    +0.000 N 
ATOM     11  H41 UNK     0       3.737  -2.926  -2.259  0.00  0.00    +0.000 HD
ATOM     12  H42 UNK     0       2.011  -3.002  -2.762  0.00  0.00    +0.000 HD
ATOM     13  H1  UNL     1       0.230  -2.045  -1.297  0.00  0.00    +0.000 HD
ENDROOT
BRANCH   1  14
ATOM     14  C11 UNK     0      -1.862  -0.887   0.365  0.00  0.00    +0.000 C 
ATOM     15  C13 UNK     0      -2.055   0.398  -0.459  0.00  0.00    +0.000 C 
ATOM     16  C12 UNK     0      -3.486   0.465  -1.018  0.00  0.00    +0.000 C 
ATOM     17  C14 UNK     0      -4.499   0.491   0.142  0.00  0.00    +0.000 C 
ATOM     18  C18 UNK     0      -4.222  -0.583   1.165  0.00  0.00    +0.000 C 
ATOM     19  C15 UNK     0      -3.009  -1.139   1.323  0.00  0.00    +0.000 C 
BRANCH  16  20
ATOM     20  C17 UNK     0      -3.671   1.671  -1.954  0.00  0.00    +0.000 C 
BRANCH  20  21
ATOM     21  O1  UNK     0      -3.419   2.872  -1.275  0.00  0.00    +0.000 OA
ATOM     22  H40 UNK     0      -3.558   3.597  -1.938  0.00  0.00    +0.000 HD
ENDBRANCH  20  21
ENDBRANCH  16  20
ENDBRANCH   1  14
BRANCH   5  23
ATOM     23  N2  UNK     0       3.757   0.230   1.352  0.00  0.00    +0.000 NA
ATOM     24  H32 UNK     0       4.783   0.018   1.349  0.00  0.00    +0.000 HD
BRANCH  23  25
ATOM     25  C8  UNK     0       3.385   1.103   0.223  0.00  0.00    +0.000 C 
ATOM     26  C9  UNK     0       4.347   1.110  -0.958  0.00  0.00    +0.000 C 
ATOM     27  C10 UNK     0       4.341   2.270   0.028  0.00  0.00    +0.000 C 
ENDBRANCH  23  25
ENDBRANCH   5  23
TORSDOF 5
