REMARK  Name = C:\Users\Maximilian\Desktop\Conformers\converted_pdb\conformers_pdb\Lipid IVa_conf_52.pdb
REMARK  5 active torsions:
REMARK  status: ('A' for Active; 'I' for Inactive)
REMARK    1  A    between atoms: N3_1  and  C11_10
REMARK    2  A    between atoms: C16_5  and  N2_19
REMARK    3  A    between atoms: C12_12  and  C17_16
REMARK    4  A    between atoms: C17_16  and  O1_17
REMARK    5  A    between atoms: N2_19  and  C8_21
REMARK                            x       y       z     vdW  Elec       q    Type
REMARK                         _______ _______ _______ _____ _____    ______ ____
ROOT
ATOM      1  N3  UNK     0      -0.552   1.133   0.292  0.00  0.00    +0.000 N 
ATOM      2  N4  UNK     0       0.905   2.555   1.284  0.00  0.00    +0.000 NA
ATOM      3  N5  UNK     0       2.932  -0.602   1.604  0.00  0.00    +0.000 NA
ATOM      4  N6  UNK     0       0.828  -0.927   0.515  0.00  0.00    +0.000 N 
ATOM      5  C16 UNK     0       2.771   0.865   1.739  0.00  0.00    +0.000 C 
ATOM      6  C19 UNK     0       0.556   0.465   0.654  0.00  0.00    +0.000 A 
ATOM      7  C20 UNK     0       1.428   1.314   1.241  0.00  0.00    +0.000 A 
ATOM      8  C21 UNK     0      -0.309   2.403   0.696  0.00  0.00    +0.000 A 
ATOM      9  C22 UNK     0       2.071  -1.418   1.048  0.00  0.00    +0.000 C 
ATOM     10  N7  UNK     0       2.369  -2.811   0.977  0.00  0.00    +0.000 N 
ATOM     11  H41 UNK     0       3.267  -3.182   1.360  0.00  0.00    +0.000 HD
ATOM     12  H42 UNK     0       1.693  -3.475   0.539  0.00  0.00    +0.000 HD
ATOM     13  H1  UNL     1       0.146  -1.577   0.067  0.00  0.00    +0.000 HD
ENDROOT
BRANCH   1  14
ATOM     14  C11 UNK     0      -1.781   0.631  -0.332  0.00  0.00    +0.000 C 
ATOM     15  C13 UNK     0      -2.584  -0.215   0.673  0.00  0.00    +0.000 C 
ATOM     16  C12 UNK     0      -3.719  -0.968  -0.043  0.00  0.00    +0.000 C 
ATOM     17  C14 UNK     0      -3.120  -1.912  -1.102  0.00  0.00    +0.000 C 
ATOM     18  C18 UNK     0      -2.126  -1.213  -1.995  0.00  0.00    +0.000 C 
ATOM     19  C15 UNK     0      -1.458  -0.113  -1.610  0.00  0.00    +0.000 C 
BRANCH  16  20
ATOM     20  C17 UNK     0      -4.581  -1.761   0.956  0.00  0.00    +0.000 C 
BRANCH  20  21
ATOM     21  O1  UNK     0      -5.218  -0.898   1.861  0.00  0.00    +0.000 OA
ATOM     22  H40 UNK     0      -5.958  -0.461   1.363  0.00  0.00    +0.000 HD
ENDBRANCH  20  21
ENDBRANCH  16  20
ENDBRANCH   1  14
BRANCH   5  23
ATOM     23  N2  UNK     0       3.855   1.577   1.044  0.00  0.00    +0.000 NA
ATOM     24  H32 UNK     0       4.761   1.284   1.481  0.00  0.00    +0.000 HD
BRANCH  23  25
ATOM     25  C8  UNK     0       3.923   1.221  -0.378  0.00  0.00    +0.000 C 
ATOM     26  C9  UNK     0       4.782   2.184  -1.179  0.00  0.00    +0.000 C 
ATOM     27  C10 UNK     0       3.269   2.234  -1.302  0.00  0.00    +0.000 C 
ENDBRANCH  23  25
ENDBRANCH   5  23
TORSDOF 5
