REMARK  Name = C:\Users\Maximilian\Desktop\Conformers\converted_pdb\conformers_pdb\Lipid IVa_conf_53.pdb
REMARK  5 active torsions:
REMARK  status: ('A' for Active; 'I' for Inactive)
REMARK    1  A    between atoms: N3_1  and  C11_10
REMARK    2  A    between atoms: C16_5  and  N2_19
REMARK    3  A    between atoms: C12_12  and  C17_16
REMARK    4  A    between atoms: C17_16  and  O1_17
REMARK    5  A    between atoms: N2_19  and  C8_21
REMARK                            x       y       z     vdW  Elec       q    Type
REMARK                         _______ _______ _______ _____ _____    ______ ____
ROOT
ATOM      1  N3  UNK     0      -0.458  -0.816  -0.368  0.00  0.00    +0.000 N 
ATOM      2  N4  UNK     0       1.337  -1.379   0.894  0.00  0.00    +0.000 NA
ATOM      3  N5  UNK     0       3.107   0.750  -1.648  0.00  0.00    +0.000 NA
ATOM      4  N6  UNK     0       0.743   0.641  -1.982  0.00  0.00    +0.000 N 
ATOM      5  C16 UNK     0       3.102  -0.049  -0.401  0.00  0.00    +0.000 C 
ATOM      6  C19 UNK     0       0.645  -0.232  -0.863  0.00  0.00    +0.000 A 
ATOM      7  C20 UNK     0       1.722  -0.578  -0.119  0.00  0.00    +0.000 A 
ATOM      8  C21 UNK     0      -0.004  -1.495   0.715  0.00  0.00    +0.000 A 
ATOM      9  C22 UNK     0       2.057   1.086  -2.357  0.00  0.00    +0.000 C 
ATOM     10  N7  UNK     0       2.227   1.886  -3.526  0.00  0.00    +0.000 N 
ATOM     11  H41 UNK     0       3.177   2.210  -3.814  0.00  0.00    +0.000 HD
ATOM     12  H42 UNK     0       1.402   2.155  -4.107  0.00  0.00    +0.000 HD
ATOM     13  H1  UNL     1      -0.096   0.929  -2.530  0.00  0.00    +0.000 HD
ENDROOT
BRANCH   1  14
ATOM     14  C11 UNK     0      -1.850  -0.630  -0.793  0.00  0.00    +0.000 C 
ATOM     15  C13 UNK     0      -2.487   0.524   0.001  0.00  0.00    +0.000 C 
ATOM     16  C12 UNK     0      -4.004   0.569  -0.245  0.00  0.00    +0.000 C 
ATOM     17  C14 UNK     0      -4.649  -0.747   0.232  0.00  0.00    +0.000 C 
ATOM     18  C18 UNK     0      -3.917  -1.960  -0.283  0.00  0.00    +0.000 C 
ATOM     19  C15 UNK     0      -2.627  -1.923  -0.660  0.00  0.00    +0.000 C 
BRANCH  16  20
ATOM     20  C17 UNK     0      -4.650   1.790   0.431  0.00  0.00    +0.000 C 
BRANCH  20  21
ATOM     21  O1  UNK     0      -4.443   1.761   1.818  0.00  0.00    +0.000 OA
ATOM     22  H40 UNK     0      -4.887   2.571   2.179  0.00  0.00    +0.000 HD
ENDBRANCH  20  21
ENDBRANCH  16  20
ENDBRANCH   1  14
BRANCH   5  23
ATOM     23  N2  UNK     0       3.553   0.793   0.719  0.00  0.00    +0.000 NA
ATOM     24  H32 UNK     0       4.258   1.481   0.361  0.00  0.00    +0.000 HD
BRANCH  23  25
ATOM     25  C8  UNK     0       4.139  -0.035   1.789  0.00  0.00    +0.000 C 
ATOM     26  C9  UNK     0       5.061   0.734   2.724  0.00  0.00    +0.000 C 
ATOM     27  C10 UNK     0       5.646  -0.240   1.710  0.00  0.00    +0.000 C 
ENDBRANCH  23  25
ENDBRANCH   5  23
TORSDOF 5
