REMARK  Name = C:\Users\Maximilian\Desktop\Conformers\converted_pdb\conformers_pdb\Lipid IVa_conf_18.pdb
REMARK  5 active torsions:
REMARK  status: ('A' for Active; 'I' for Inactive)
REMARK    1  A    between atoms: N3_1  and  C11_10
REMARK    2  A    between atoms: C16_5  and  N2_19
REMARK    3  A    between atoms: C12_12  and  C17_16
REMARK    4  A    between atoms: C17_16  and  O1_17
REMARK    5  A    between atoms: N2_19  and  C8_21
REMARK                            x       y       z     vdW  Elec       q    Type
REMARK                         _______ _______ _______ _____ _____    ______ ____
ROOT
ATOM      1  N3  UNK     0       0.597   1.238  -0.924  0.00  0.00    +0.000 N 
ATOM      2  N4  UNK     0      -1.474   1.730  -1.698  0.00  0.00    +0.000 NA
ATOM      3  N5  UNK     0      -2.382  -1.239   0.416  0.00  0.00    +0.000 NA
ATOM      4  N6  UNK     0      -0.053  -0.709   0.478  0.00  0.00    +0.000 N 
ATOM      5  C16 UNK     0      -2.757  -0.095  -0.447  0.00  0.00    +0.000 C 
ATOM      6  C19 UNK     0      -0.300   0.395  -0.385  0.00  0.00    +0.000 A 
ATOM      7  C20 UNK     0      -1.538   0.690  -0.843  0.00  0.00    +0.000 A 
ATOM      8  C21 UNK     0      -0.151   2.038  -1.722  0.00  0.00    +0.000 A 
ATOM      9  C22 UNK     0      -1.178  -1.524   0.847  0.00  0.00    +0.000 C 
ATOM     10  N7  UNK     0      -0.982  -2.664   1.682  0.00  0.00    +0.000 N 
ATOM     11  H41 UNK     0      -0.029  -2.907   2.030  0.00  0.00    +0.000 HD
ATOM     12  H42 UNK     0      -1.790  -3.266   1.956  0.00  0.00    +0.000 HD
ATOM     13  H1  UNL     1       0.907  -0.939   0.814  0.00  0.00    +0.000 HD
ENDROOT
BRANCH   1  14
ATOM     14  C11 UNK     0       2.056   1.265  -0.776  0.00  0.00    +0.000 C 
ATOM     15  C13 UNK     0       2.703   0.042  -1.481  0.00  0.00    +0.000 C 
ATOM     16  C12 UNK     0       4.129  -0.334  -0.959  0.00  0.00    +0.000 C 
ATOM     17  C14 UNK     0       4.718   0.745  -0.021  0.00  0.00    +0.000 C 
ATOM     18  C18 UNK     0       3.717   1.124   1.034  0.00  0.00    +0.000 C 
ATOM     19  C15 UNK     0       2.448   1.351   0.680  0.00  0.00    +0.000 C 
BRANCH  16  20
ATOM     20  C17 UNK     0       4.130  -1.712  -0.261  0.00  0.00    +0.000 C 
BRANCH  20  21
ATOM     21  O1  UNK     0       3.758  -2.725  -1.157  0.00  0.00    +0.000 OA
ATOM     22  H40 UNK     0       4.537  -2.879  -1.752  0.00  0.00    +0.000 HD
ENDBRANCH  20  21
ENDBRANCH  16  20
ENDBRANCH   1  14
BRANCH   5  23
ATOM     23  N2  UNK     0      -3.701   0.776   0.266  0.00  0.00    +0.000 NA
ATOM     24  H32 UNK     0      -3.870   1.631  -0.316  0.00  0.00    +0.000 HD
BRANCH  23  25
ATOM     25  C8  UNK     0      -4.965   0.058   0.508  0.00  0.00    +0.000 C 
ATOM     26  C9  UNK     0      -6.035   0.231  -0.562  0.00  0.00    +0.000 C 
ATOM     27  C10 UNK     0      -6.152   0.977   0.760  0.00  0.00    +0.000 C 
ENDBRANCH  23  25
ENDBRANCH   5  23
TORSDOF 5
