REMARK  Name = C:\Users\Maximilian\Desktop\Conformers\converted_pdb\conformers_pdb\Lipid IVa_conf_31.pdb
REMARK  5 active torsions:
REMARK  status: ('A' for Active; 'I' for Inactive)
REMARK    1  A    between atoms: N3_1  and  C11_10
REMARK    2  A    between atoms: C16_5  and  N2_19
REMARK    3  A    between atoms: C12_12  and  C17_16
REMARK    4  A    between atoms: C17_16  and  O1_17
REMARK    5  A    between atoms: N2_19  and  C8_21
REMARK                            x       y       z     vdW  Elec       q    Type
REMARK                         _______ _______ _______ _____ _____    ______ ____
ROOT
ATOM      1  N3  UNK     0      -0.607  -0.225  -1.136  0.00  0.00    +0.000 N 
ATOM      2  N4  UNK     0       1.374  -0.710  -2.141  0.00  0.00    +0.000 NA
ATOM      3  N5  UNK     0       2.781   1.043   0.857  0.00  0.00    +0.000 NA
ATOM      4  N6  UNK     0       0.392   1.010   0.822  0.00  0.00    +0.000 N 
ATOM      5  C16 UNK     0       2.939   0.304  -0.413  0.00  0.00    +0.000 C 
ATOM      6  C19 UNK     0       0.421   0.220  -0.369  0.00  0.00    +0.000 A 
ATOM      7  C20 UNK     0       1.599  -0.085  -0.974  0.00  0.00    +0.000 A 
ATOM      8  C21 UNK     0       0.024  -0.779  -2.204  0.00  0.00    +0.000 A 
ATOM      9  C22 UNK     0       1.648   1.373   1.420  0.00  0.00    +0.000 C 
ATOM     10  N7  UNK     0       1.663   2.111   2.642  0.00  0.00    +0.000 N 
ATOM     11  H41 UNK     0       2.569   2.384   3.085  0.00  0.00    +0.000 HD
ATOM     12  H42 UNK     0       0.770   2.382   3.109  0.00  0.00    +0.000 HD
ATOM     13  H1  UNL     1      -0.470   1.437   1.211  0.00  0.00    +0.000 HD
ENDROOT
BRANCH   1  14
ATOM     14  C11 UNK     0      -2.075  -0.287  -0.964  0.00  0.00    +0.000 C 
ATOM     15  C13 UNK     0      -2.643   0.604   0.151  0.00  0.00    +0.000 C 
ATOM     16  C12 UNK     0      -4.173   0.448   0.199  0.00  0.00    +0.000 C 
ATOM     17  C14 UNK     0      -4.538  -1.013   0.552  0.00  0.00    +0.000 C 
ATOM     18  C18 UNK     0      -3.690  -2.031  -0.176  0.00  0.00    +0.000 C 
ATOM     19  C15 UNK     0      -2.525  -1.720  -0.770  0.00  0.00    +0.000 C 
BRANCH  16  20
ATOM     20  C17 UNK     0      -4.786   1.433   1.211  0.00  0.00    +0.000 C 
BRANCH  20  21
ATOM     21  O1  UNK     0      -6.184   1.321   1.232  0.00  0.00    +0.000 OA
ATOM     22  H40 UNK     0      -6.516   1.753   0.402  0.00  0.00    +0.000 HD
ENDBRANCH  20  21
ENDBRANCH  16  20
ENDBRANCH   1  14
BRANCH   5  23
ATOM     23  N2  UNK     0       3.756  -0.897  -0.189  0.00  0.00    +0.000 NA
ATOM     24  H32 UNK     0       3.770  -1.461  -1.073  0.00  0.00    +0.000 HD
BRANCH  23  25
ATOM     25  C8  UNK     0       5.125  -0.511   0.197  0.00  0.00    +0.000 C 
ATOM     26  C9  UNK     0       6.119  -0.377  -0.949  0.00  0.00    +0.000 C 
ATOM     27  C10 UNK     0       6.160  -1.601  -0.043  0.00  0.00    +0.000 C 
ENDBRANCH  23  25
ENDBRANCH   5  23
TORSDOF 5
