REMARK  Name = C:\Users\Maximilian\Desktop\Conformers\converted_pdb\conformers_pdb\Lipid IVa_conf_75.pdb
REMARK  5 active torsions:
REMARK  status: ('A' for Active; 'I' for Inactive)
REMARK    1  A    between atoms: N3_1  and  C11_10
REMARK    2  A    between atoms: C16_5  and  N2_19
REMARK    3  A    between atoms: C12_12  and  C17_16
REMARK    4  A    between atoms: C17_16  and  O1_17
REMARK    5  A    between atoms: N2_19  and  C8_21
REMARK                            x       y       z     vdW  Elec       q    Type
REMARK                         _______ _______ _______ _____ _____    ______ ____
ROOT
ATOM      1  N3  UNK     0      -0.671   0.812   1.077  0.00  0.00    +0.000 N 
ATOM      2  N4  UNK     0       1.209   2.077   1.096  0.00  0.00    +0.000 NA
ATOM      3  N5  UNK     0       2.828  -1.303   1.363  0.00  0.00    +0.000 NA
ATOM      4  N6  UNK     0       0.447  -1.403   1.192  0.00  0.00    +0.000 N 
ATOM      5  C16 UNK     0       2.907   0.171   1.240  0.00  0.00    +0.000 C 
ATOM      6  C19 UNK     0       0.408   0.019   1.173  0.00  0.00    +0.000 A 
ATOM      7  C20 UNK     0       1.531   0.773   1.199  0.00  0.00    +0.000 A 
ATOM      8  C21 UNK     0      -0.146   2.062   1.017  0.00  0.00    +0.000 A 
ATOM      9  C22 UNK     0       1.737  -2.025   1.323  0.00  0.00    +0.000 C 
ATOM     10  N7  UNK     0       1.830  -3.445   1.429  0.00  0.00    +0.000 N 
ATOM     11  H41 UNK     0       0.970  -4.035   1.406  0.00  0.00    +0.000 HD
ATOM     12  H42 UNK     0       2.761  -3.909   1.528  0.00  0.00    +0.000 HD
ATOM     13  H1  UNL     1      -0.422  -1.978   1.133  0.00  0.00    +0.000 HD
ENDROOT
BRANCH   1  14
ATOM     14  C11 UNK     0      -2.073   0.416   0.898  0.00  0.00    +0.000 C 
ATOM     15  C13 UNK     0      -2.396   0.309  -0.602  0.00  0.00    +0.000 C 
ATOM     16  C12 UNK     0      -3.911   0.141  -0.815  0.00  0.00    +0.000 C 
ATOM     17  C14 UNK     0      -4.647   1.374  -0.257  0.00  0.00    +0.000 C 
ATOM     18  C18 UNK     0      -4.195   1.732   1.136  0.00  0.00    +0.000 C 
ATOM     19  C15 UNK     0      -2.995   1.374   1.623  0.00  0.00    +0.000 C 
BRANCH  16  20
ATOM     20  C17 UNK     0      -4.246  -0.059  -2.301  0.00  0.00    +0.000 C 
BRANCH  20  21
ATOM     21  O1  UNK     0      -3.694  -1.263  -2.760  0.00  0.00    +0.000 OA
ATOM     22  H40 UNK     0      -3.934  -1.327  -3.721  0.00  0.00    +0.000 HD
ENDBRANCH  20  21
ENDBRANCH  16  20
ENDBRANCH   1  14
BRANCH   5  23
ATOM     23  N2  UNK     0       3.636   0.530   0.015  0.00  0.00    +0.000 NA
ATOM     24  H32 UNK     0       3.689   1.575  -0.038  0.00  0.00    +0.000 HD
BRANCH  23  25
ATOM     25  C8  UNK     0       5.018   0.053   0.091  0.00  0.00    +0.000 C 
ATOM     26  C9  UNK     0       5.723   0.081  -1.255  0.00  0.00    +0.000 C 
ATOM     27  C10 UNK     0       5.262  -1.242  -0.666  0.00  0.00    +0.000 C 
ENDBRANCH  23  25
ENDBRANCH   5  23
TORSDOF 5
