REMARK  Name = C:\Users\Maximilian\Desktop\Conformers\converted_pdb\conformers_pdb\Lipid IVa_conf_2.pdb
REMARK  5 active torsions:
REMARK  status: ('A' for Active; 'I' for Inactive)
REMARK    1  A    between atoms: N3_1  and  C11_10
REMARK    2  A    between atoms: C16_5  and  N2_19
REMARK    3  A    between atoms: C12_12  and  C17_16
REMARK    4  A    between atoms: C17_16  and  O1_17
REMARK    5  A    between atoms: N2_19  and  C8_21
REMARK                            x       y       z     vdW  Elec       q    Type
REMARK                         _______ _______ _______ _____ _____    ______ ____
ROOT
ATOM      1  N3  UNK     0      -0.430   0.941  -1.030  0.00  0.00    +0.000 N 
ATOM      2  N4  UNK     0       1.736   1.503  -1.368  0.00  0.00    +0.000 NA
ATOM      3  N5  UNK     0       2.268  -2.040  -0.240  0.00  0.00    +0.000 NA
ATOM      4  N6  UNK     0      -0.027  -1.379  -0.233  0.00  0.00    +0.000 N 
ATOM      5  C16 UNK     0       2.791  -0.703  -0.606  0.00  0.00    +0.000 C 
ATOM      6  C19 UNK     0       0.363  -0.088  -0.687  0.00  0.00    +0.000 A 
ATOM      7  C20 UNK     0       1.658   0.244  -0.893  0.00  0.00    +0.000 A 
ATOM      8  C21 UNK     0       0.439   1.898  -1.434  0.00  0.00    +0.000 A 
ATOM      9  C22 UNK     0       1.012  -2.355  -0.049  0.00  0.00    +0.000 C 
ATOM     10  N7  UNK     0       0.670  -3.690   0.324  0.00  0.00    +0.000 N 
ATOM     11  H41 UNK     0       1.414  -4.411   0.453  0.00  0.00    +0.000 HD
ATOM     12  H42 UNK     0      -0.327  -3.959   0.472  0.00  0.00    +0.000 HD
ATOM     13  H1  UNL     1      -1.028  -1.628  -0.076  0.00  0.00    +0.000 HD
ENDROOT
BRANCH   1  14
ATOM     14  C11 UNK     0      -1.891   1.055  -0.964  0.00  0.00    +0.000 C 
ATOM     15  C13 UNK     0      -2.357   1.121   0.504  0.00  0.00    +0.000 C 
ATOM     16  C12 UNK     0      -3.882   0.946   0.590  0.00  0.00    +0.000 C 
ATOM     17  C14 UNK     0      -4.280  -0.428   0.019  0.00  0.00    +0.000 C 
ATOM     18  C18 UNK     0      -3.673  -0.671  -1.340  0.00  0.00    +0.000 C 
ATOM     19  C15 UNK     0      -2.545  -0.065  -1.746  0.00  0.00    +0.000 C 
BRANCH  16  20
ATOM     20  C17 UNK     0      -4.395   1.135   2.029  0.00  0.00    +0.000 C 
BRANCH  20  21
ATOM     21  O1  UNK     0      -3.785   0.231   2.915  0.00  0.00    +0.000 OA
ATOM     22  H40 UNK     0      -4.378  -0.563   2.973  0.00  0.00    +0.000 HD
ENDBRANCH  20  21
ENDBRANCH  16  20
ENDBRANCH   1  14
BRANCH   5  23
ATOM     23  N2  UNK     0       3.611  -0.182   0.500  0.00  0.00    +0.000 NA
ATOM     24  H32 UNK     0       4.104  -0.985   0.960  0.00  0.00    +0.000 HD
BRANCH  23  25
ATOM     25  C8  UNK     0       4.587   0.805   0.003  0.00  0.00    +0.000 C 
ATOM     26  C9  UNK     0       5.948   0.245  -0.384  0.00  0.00    +0.000 C 
ATOM     27  C10 UNK     0       5.781   1.004   0.925  0.00  0.00    +0.000 C 
ENDBRANCH  23  25
ENDBRANCH   5  23
TORSDOF 5
