REMARK  Name = C:\Users\Maximilian\Desktop\Conformers\converted_pdb\conformers_pdb\Lipid IVa_conf_39.pdb
REMARK  5 active torsions:
REMARK  status: ('A' for Active; 'I' for Inactive)
REMARK    1  A    between atoms: N3_1  and  C11_10
REMARK    2  A    between atoms: C16_5  and  N2_19
REMARK    3  A    between atoms: C12_12  and  C17_16
REMARK    4  A    between atoms: C17_16  and  O1_17
REMARK    5  A    between atoms: N2_19  and  C8_21
REMARK                            x       y       z     vdW  Elec       q    Type
REMARK                         _______ _______ _______ _____ _____    ______ ____
ROOT
ATOM      1  N3  UNK     0       0.414   0.566  -0.429  0.00  0.00    +0.000 N 
ATOM      2  N4  UNK     0      -1.372   1.500   0.605  0.00  0.00    +0.000 NA
ATOM      3  N5  UNK     0      -2.691  -1.996   0.316  0.00  0.00    +0.000 NA
ATOM      4  N6  UNK     0      -0.514  -1.727  -0.631  0.00  0.00    +0.000 N 
ATOM      5  C16 UNK     0      -2.898  -0.555   0.584  0.00  0.00    +0.000 C 
ATOM      6  C19 UNK     0      -0.576  -0.336  -0.334  0.00  0.00    +0.000 A 
ATOM      7  C20 UNK     0      -1.649   0.223   0.274  0.00  0.00    +0.000 A 
ATOM      8  C21 UNK     0      -0.101   1.673   0.162  0.00  0.00    +0.000 A 
ATOM      9  C22 UNK     0      -1.638  -2.536  -0.247  0.00  0.00    +0.000 C 
ATOM     10  N7  UNK     0      -1.598  -3.947  -0.454  0.00  0.00    +0.000 N 
ATOM     11  H41 UNK     0      -2.404  -4.548  -0.171  0.00  0.00    +0.000 HD
ATOM     12  H42 UNK     0      -0.762  -4.394  -0.892  0.00  0.00    +0.000 HD
ATOM     13  H1  UNL     1       0.335  -2.159  -1.057  0.00  0.00    +0.000 HD
ENDROOT
BRANCH   1  14
ATOM     14  C11 UNK     0       1.795   0.348  -0.875  0.00  0.00    +0.000 C 
ATOM     15  C13 UNK     0       2.671  -0.061   0.322  0.00  0.00    +0.000 C 
ATOM     16  C12 UNK     0       4.158  -0.051  -0.073  0.00  0.00    +0.000 C 
ATOM     17  C14 UNK     0       4.567   1.372  -0.497  0.00  0.00    +0.000 C 
ATOM     18  C18 UNK     0       3.602   1.978  -1.484  0.00  0.00    +0.000 C 
ATOM     19  C15 UNK     0       2.325   1.573  -1.590  0.00  0.00    +0.000 C 
BRANCH  16  20
ATOM     20  C17 UNK     0       5.046  -0.544   1.083  0.00  0.00    +0.000 C 
BRANCH  20  21
ATOM     21  O1  UNK     0       4.756  -1.879   1.403  0.00  0.00    +0.000 OA
ATOM     22  H40 UNK     0       5.152  -2.436   0.683  0.00  0.00    +0.000 HD
ENDBRANCH  20  21
ENDBRANCH  16  20
ENDBRANCH   1  14
BRANCH   5  23
ATOM     23  N2  UNK     0      -4.013  -0.063  -0.240  0.00  0.00    +0.000 NA
ATOM     24  H32 UNK     0      -4.738  -0.818  -0.304  0.00  0.00    +0.000 HD
BRANCH  23  25
ATOM     25  C8  UNK     0      -4.593   1.160   0.346  0.00  0.00    +0.000 C 
ATOM     26  C9  UNK     0      -5.741   0.940   1.321  0.00  0.00    +0.000 C 
ATOM     27  C10 UNK     0      -6.025   1.431  -0.092  0.00  0.00    +0.000 C 
ENDBRANCH  23  25
ENDBRANCH   5  23
TORSDOF 5
