REMARK  Name = C:\Users\Maximilian\Desktop\Conformers\converted_pdb\conformers_pdb\Lipid IVa_conf_19.pdb
REMARK  5 active torsions:
REMARK  status: ('A' for Active; 'I' for Inactive)
REMARK    1  A    between atoms: N3_1  and  C11_10
REMARK    2  A    between atoms: C16_5  and  N2_19
REMARK    3  A    between atoms: C12_12  and  C17_16
REMARK    4  A    between atoms: C17_16  and  O1_17
REMARK    5  A    between atoms: N2_19  and  C8_21
REMARK                            x       y       z     vdW  Elec       q    Type
REMARK                         _______ _______ _______ _____ _____    ______ ____
ROOT
ATOM      1  N3  UNK     0      -0.528   0.737  -1.291  0.00  0.00    +0.000 N 
ATOM      2  N4  UNK     0       1.557   1.493  -1.750  0.00  0.00    +0.000 NA
ATOM      3  N5  UNK     0       2.515  -1.583   0.190  0.00  0.00    +0.000 NA
ATOM      4  N6  UNK     0       0.152  -1.277   0.001  0.00  0.00    +0.000 N 
ATOM      5  C16 UNK     0       2.861  -0.354  -0.563  0.00  0.00    +0.000 C 
ATOM      6  C19 UNK     0       0.382  -0.095  -0.756  0.00  0.00    +0.000 A 
ATOM      7  C20 UNK     0       1.627   0.354  -1.034  0.00  0.00    +0.000 A 
ATOM      8  C21 UNK     0       0.221   1.698  -1.885  0.00  0.00    +0.000 A 
ATOM      9  C22 UNK     0       1.304  -2.008   0.455  0.00  0.00    +0.000 C 
ATOM     10  N7  UNK     0       1.130  -3.212   1.200  0.00  0.00    +0.000 N 
ATOM     11  H41 UNK     0       1.958  -3.752   1.536  0.00  0.00    +0.000 HD
ATOM     12  H42 UNK     0       0.172  -3.565   1.419  0.00  0.00    +0.000 HD
ATOM     13  H1  UNL     1      -0.812  -1.612   0.218  0.00  0.00    +0.000 HD
ENDROOT
BRANCH   1  14
ATOM     14  C11 UNK     0      -1.992   0.690  -1.215  0.00  0.00    +0.000 C 
ATOM     15  C13 UNK     0      -2.465   1.027   0.212  0.00  0.00    +0.000 C 
ATOM     16  C12 UNK     0      -3.963   0.718   0.370  0.00  0.00    +0.000 C 
ATOM     17  C14 UNK     0      -4.207  -0.783   0.121  0.00  0.00    +0.000 C 
ATOM     18  C18 UNK     0      -3.561  -1.264  -1.153  0.00  0.00    +0.000 C 
ATOM     19  C15 UNK     0      -2.506  -0.645  -1.708  0.00  0.00    +0.000 C 
BRANCH  16  20
ATOM     20  C17 UNK     0      -4.456   1.136   1.767  0.00  0.00    +0.000 C 
BRANCH  20  21
ATOM     21  O1  UNK     0      -5.834   0.911   1.899  0.00  0.00    +0.000 OA
ATOM     22  H40 UNK     0      -6.289   1.621   1.375  0.00  0.00    +0.000 HD
ENDBRANCH  20  21
ENDBRANCH  16  20
ENDBRANCH   1  14
BRANCH   5  23
ATOM     23  N2  UNK     0       3.646   0.556   0.281  0.00  0.00    +0.000 NA
ATOM     24  H32 UNK     0       3.170   0.649   1.209  0.00  0.00    +0.000 HD
BRANCH  23  25
ATOM     25  C8  UNK     0       4.979   0.001   0.521  0.00  0.00    +0.000 C 
ATOM     26  C9  UNK     0       5.992   1.062   0.913  0.00  0.00    +0.000 C 
ATOM     27  C10 UNK     0       6.021   0.460  -0.483  0.00  0.00    +0.000 C 
ENDBRANCH  23  25
ENDBRANCH   5  23
TORSDOF 5
