REMARK  Name = C:\Users\Maximilian\Desktop\Conformers\converted_pdb\conformers_pdb\Lipid IVa_conf_13.pdb
REMARK  5 active torsions:
REMARK  status: ('A' for Active; 'I' for Inactive)
REMARK    1  A    between atoms: N3_1  and  C11_10
REMARK    2  A    between atoms: C16_5  and  N2_19
REMARK    3  A    between atoms: C12_12  and  C17_16
REMARK    4  A    between atoms: C17_16  and  O1_17
REMARK    5  A    between atoms: N2_19  and  C8_21
REMARK                            x       y       z     vdW  Elec       q    Type
REMARK                         _______ _______ _______ _____ _____    ______ ____
ROOT
ATOM      1  N3  UNK     0       0.561  -0.713   0.000  0.00  0.00    +0.000 N 
ATOM      2  N4  UNK     0      -1.227  -1.335  -1.247  0.00  0.00    +0.000 NA
ATOM      3  N5  UNK     0      -2.800   1.573   0.531  0.00  0.00    +0.000 NA
ATOM      4  N6  UNK     0      -0.521   1.205   1.148  0.00  0.00    +0.000 N 
ATOM      5  C16 UNK     0      -2.885   0.401  -0.370  0.00  0.00    +0.000 C 
ATOM      6  C19 UNK     0      -0.494   0.061   0.302  0.00  0.00    +0.000 A 
ATOM      7  C20 UNK     0      -1.565  -0.317  -0.432  0.00  0.00    +0.000 A 
ATOM      8  C21 UNK     0       0.082  -1.548  -0.958  0.00  0.00    +0.000 A 
ATOM      9  C22 UNK     0      -1.751   1.946   1.221  0.00  0.00    +0.000 C 
ATOM     10  N7  UNK     0      -1.831   3.105   2.050  0.00  0.00    +0.000 N 
ATOM     11  H41 UNK     0      -2.718   3.653   2.110  0.00  0.00    +0.000 HD
ATOM     12  H42 UNK     0      -1.004   3.417   2.605  0.00  0.00    +0.000 HD
ATOM     13  H1  UNL     1       0.322   1.518   1.679  0.00  0.00    +0.000 HD
ENDROOT
BRANCH   1  14
ATOM     14  C11 UNK     0       1.950  -0.569   0.452  0.00  0.00    +0.000 C 
ATOM     15  C13 UNK     0       2.768   0.224  -0.587  0.00  0.00    +0.000 C 
ATOM     16  C12 UNK     0       4.298   0.275  -0.266  0.00  0.00    +0.000 C 
ATOM     17  C14 UNK     0       4.729  -0.708   0.858  0.00  0.00    +0.000 C 
ATOM     18  C18 UNK     0       3.924  -1.979   0.835  0.00  0.00    +0.000 C 
ATOM     19  C15 UNK     0       2.597  -1.914   0.676  0.00  0.00    +0.000 C 
BRANCH  16  20
ATOM     20  C17 UNK     0       5.140   0.044  -1.537  0.00  0.00    +0.000 C 
BRANCH  20  21
ATOM     21  O1  UNK     0       4.815   0.982  -2.528  0.00  0.00    +0.000 OA
ATOM     22  H40 UNK     0       5.221   1.844  -2.248  0.00  0.00    +0.000 HD
ENDBRANCH  20  21
ENDBRANCH  16  20
ENDBRANCH   1  14
BRANCH   5  23
ATOM     23  N2  UNK     0      -3.930  -0.516   0.105  0.00  0.00    +0.000 NA
ATOM     24  H32 UNK     0      -3.900  -1.386  -0.480  0.00  0.00    +0.000 HD
BRANCH  23  25
ATOM     25  C8  UNK     0      -5.251   0.129   0.004  0.00  0.00    +0.000 C 
ATOM     26  C9  UNK     0      -6.411  -0.854  -0.026  0.00  0.00    +0.000 C 
ATOM     27  C10 UNK     0      -6.006  -0.117  -1.295  0.00  0.00    +0.000 C 
ENDBRANCH  23  25
ENDBRANCH   5  23
TORSDOF 5
