REMARK  Name = C:\Users\Maximilian\Desktop\Conformers\converted_pdb\conformers_pdb\Lipid IVa_conf_44.pdb
REMARK  5 active torsions:
REMARK  status: ('A' for Active; 'I' for Inactive)
REMARK    1  A    between atoms: N3_1  and  C11_10
REMARK    2  A    between atoms: C16_5  and  N2_19
REMARK    3  A    between atoms: C12_12  and  C17_16
REMARK    4  A    between atoms: C17_16  and  O1_17
REMARK    5  A    between atoms: N2_19  and  C8_21
REMARK                            x       y       z     vdW  Elec       q    Type
REMARK                         _______ _______ _______ _____ _____    ______ ____
ROOT
ATOM      1  N3  UNK     0      -0.552  -0.213   0.879  0.00  0.00    +0.000 N 
ATOM      2  N4  UNK     0       0.839   1.287   1.854  0.00  0.00    +0.000 NA
ATOM      3  N5  UNK     0       2.768   0.750  -1.320  0.00  0.00    +0.000 NA
ATOM      4  N6  UNK     0       0.761  -0.540  -1.203  0.00  0.00    +0.000 N 
ATOM      5  C16 UNK     0       2.639   1.321   0.041  0.00  0.00    +0.000 C 
ATOM      6  C19 UNK     0       0.527  -0.026   0.103  0.00  0.00    +0.000 A 
ATOM      7  C20 UNK     0       1.364   0.862   0.689  0.00  0.00    +0.000 A 
ATOM      8  C21 UNK     0      -0.336   0.612   1.935  0.00  0.00    +0.000 A 
ATOM      9  C22 UNK     0       1.942  -0.092  -1.889  0.00  0.00    +0.000 C 
ATOM     10  N7  UNK     0       2.213  -0.558  -3.209  0.00  0.00    +0.000 N 
ATOM     11  H41 UNK     0       3.067  -0.238  -3.719  0.00  0.00    +0.000 HD
ATOM     12  H42 UNK     0       1.563  -1.225  -3.680  0.00  0.00    +0.000 HD
ATOM     13  H1  UNL     1       0.089  -1.192  -1.664  0.00  0.00    +0.000 HD
ENDROOT
BRANCH   1  14
ATOM     14  C11 UNK     0      -1.765  -0.978   0.571  0.00  0.00    +0.000 C 
ATOM     15  C13 UNK     0      -2.793  -0.067  -0.123  0.00  0.00    +0.000 C 
ATOM     16  C12 UNK     0      -4.154  -0.776  -0.230  0.00  0.00    +0.000 C 
ATOM     17  C14 UNK     0      -4.680  -1.093   1.183  0.00  0.00    +0.000 C 
ATOM     18  C18 UNK     0      -3.638  -1.755   2.049  0.00  0.00    +0.000 C 
ATOM     19  C15 UNK     0      -2.320  -1.627   1.822  0.00  0.00    +0.000 C 
BRANCH  16  20
ATOM     20  C17 UNK     0      -5.170   0.079  -1.003  0.00  0.00    +0.000 C 
BRANCH  20  21
ATOM     21  O1  UNK     0      -4.753   0.236  -2.332  0.00  0.00    +0.000 OA
ATOM     22  H40 UNK     0      -5.439   0.803  -2.770  0.00  0.00    +0.000 HD
ENDBRANCH  20  21
ENDBRANCH  16  20
ENDBRANCH   1  14
BRANCH   5  23
ATOM     23  N2  UNK     0       3.783   0.909   0.865  0.00  0.00    +0.000 NA
ATOM     24  H32 UNK     0       3.668   1.333   1.816  0.00  0.00    +0.000 HD
BRANCH  23  25
ATOM     25  C8  UNK     0       5.025   1.460   0.318  0.00  0.00    +0.000 C 
ATOM     26  C9  UNK     0       5.822   0.467  -0.511  0.00  0.00    +0.000 C 
ATOM     27  C10 UNK     0       6.265   0.804   0.903  0.00  0.00    +0.000 C 
ENDBRANCH  23  25
ENDBRANCH   5  23
TORSDOF 5
