REMARK  Name = C:\Users\Maximilian\Desktop\Conformers\converted_pdb\conformers_pdb\Lipid IVa_conf_23.pdb
REMARK  5 active torsions:
REMARK  status: ('A' for Active; 'I' for Inactive)
REMARK    1  A    between atoms: N3_1  and  C11_10
REMARK    2  A    between atoms: C16_5  and  N2_19
REMARK    3  A    between atoms: C12_12  and  C17_16
REMARK    4  A    between atoms: C17_16  and  O1_17
REMARK    5  A    between atoms: N2_19  and  C8_21
REMARK                            x       y       z     vdW  Elec       q    Type
REMARK                         _______ _______ _______ _____ _____    ______ ____
ROOT
ATOM      1  N3  UNK     0      -0.512  -1.301  -0.036  0.00  0.00    +0.000 N 
ATOM      2  N4  UNK     0       1.207  -1.896   1.317  0.00  0.00    +0.000 NA
ATOM      3  N5  UNK     0       3.173   0.029  -1.242  0.00  0.00    +0.000 NA
ATOM      4  N6  UNK     0       0.821   0.016  -1.667  0.00  0.00    +0.000 N 
ATOM      5  C16 UNK     0       3.081  -0.730   0.027  0.00  0.00    +0.000 C 
ATOM      6  C19 UNK     0       0.639  -0.812  -0.524  0.00  0.00    +0.000 A 
ATOM      7  C20 UNK     0       1.668  -1.179   0.274  0.00  0.00    +0.000 A 
ATOM      8  C21 UNK     0      -0.132  -1.946   1.096  0.00  0.00    +0.000 A 
ATOM      9  C22 UNK     0       2.169   0.389  -2.002  0.00  0.00    +0.000 C 
ATOM     10  N7  UNK     0       2.420   1.145  -3.185  0.00  0.00    +0.000 N 
ATOM     11  H41 UNK     0       1.632   1.435  -3.806  0.00  0.00    +0.000 HD
ATOM     12  H42 UNK     0       3.395   1.419  -3.443  0.00  0.00    +0.000 HD
ATOM     13  H1  UNL     1       0.017   0.325  -2.255  0.00  0.00    +0.000 HD
ENDROOT
BRANCH   1  14
ATOM     14  C11 UNK     0      -1.876  -1.051  -0.513  0.00  0.00    +0.000 C 
ATOM     15  C13 UNK     0      -2.458   0.183   0.199  0.00  0.00    +0.000 C 
ATOM     16  C12 UNK     0      -3.960   0.317  -0.098  0.00  0.00    +0.000 C 
ATOM     17  C14 UNK     0      -4.703  -0.928   0.427  0.00  0.00    +0.000 C 
ATOM     18  C18 UNK     0      -4.038  -2.214   0.005  0.00  0.00    +0.000 C 
ATOM     19  C15 UNK     0      -2.740  -2.282  -0.334  0.00  0.00    +0.000 C 
BRANCH  16  20
ATOM     20  C17 UNK     0      -4.522   1.605   0.529  0.00  0.00    +0.000 C 
BRANCH  20  21
ATOM     21  O1  UNK     0      -5.881   1.761   0.217  0.00  0.00    +0.000 OA
ATOM     22  H40 UNK     0      -5.923   2.043  -0.734  0.00  0.00    +0.000 HD
ENDBRANCH  20  21
ENDBRANCH  16  20
ENDBRANCH   1  14
BRANCH   5  23
ATOM     23  N2  UNK     0       3.530   0.113   1.144  0.00  0.00    +0.000 NA
ATOM     24  H32 UNK     0       3.469  -0.452   2.024  0.00  0.00    +0.000 HD
BRANCH  23  25
ATOM     25  C8  UNK     0       4.943   0.461   0.979  0.00  0.00    +0.000 C 
ATOM     26  C9  UNK     0       5.378   1.594   1.893  0.00  0.00    +0.000 C 
ATOM     27  C10 UNK     0       5.170   1.851   0.410  0.00  0.00    +0.000 C 
ENDBRANCH  23  25
ENDBRANCH   5  23
TORSDOF 5
