REMARK  Name = C:\Users\Maximilian\Desktop\Conformers\converted_pdb\conformers_pdb\Lipid IVa_conf_51.pdb
REMARK  5 active torsions:
REMARK  status: ('A' for Active; 'I' for Inactive)
REMARK    1  A    between atoms: N3_1  and  C11_10
REMARK    2  A    between atoms: C16_5  and  N2_19
REMARK    3  A    between atoms: C12_12  and  C17_16
REMARK    4  A    between atoms: C17_16  and  O1_17
REMARK    5  A    between atoms: N2_19  and  C8_21
REMARK                            x       y       z     vdW  Elec       q    Type
REMARK                         _______ _______ _______ _____ _____    ______ ____
ROOT
ATOM      1  N3  UNK     0      -0.565  -1.191  -0.242  0.00  0.00    +0.000 N 
ATOM      2  N4  UNK     0       1.433  -2.277  -0.194  0.00  0.00    +0.000 NA
ATOM      3  N5  UNK     0       2.673   1.054   0.992  0.00  0.00    +0.000 NA
ATOM      4  N6  UNK     0       0.347   1.059   0.443  0.00  0.00    +0.000 N 
ATOM      5  C16 UNK     0       2.894  -0.341   0.554  0.00  0.00    +0.000 C 
ATOM      6  C19 UNK     0       0.414  -0.340   0.156  0.00  0.00    +0.000 A 
ATOM      7  C20 UNK     0       1.599  -1.002   0.192  0.00  0.00    +0.000 A 
ATOM      8  C21 UNK     0       0.105  -2.355  -0.449  0.00  0.00    +0.000 A 
ATOM      9  C22 UNK     0       1.539   1.703   0.927  0.00  0.00    +0.000 C 
ATOM     10  N7  UNK     0       1.487   3.066   1.347  0.00  0.00    +0.000 N 
ATOM     11  H41 UNK     0       0.590   3.598   1.309  0.00  0.00    +0.000 HD
ATOM     12  H42 UNK     0       2.345   3.545   1.699  0.00  0.00    +0.000 HD
ATOM     13  H1  UNL     1      -0.470   1.656   0.216  0.00  0.00    +0.000 HD
ENDROOT
BRANCH   1  14
ATOM     14  C11 UNK     0      -2.036  -1.090  -0.361  0.00  0.00    +0.000 C 
ATOM     15  C13 UNK     0      -2.598   0.340  -0.344  0.00  0.00    +0.000 C 
ATOM     16  C12 UNK     0      -4.130   0.286  -0.493  0.00  0.00    +0.000 C 
ATOM     17  C14 UNK     0      -4.743  -0.458   0.714  0.00  0.00    +0.000 C 
ATOM     18  C18 UNK     0      -3.975  -1.701   1.101  0.00  0.00    +0.000 C 
ATOM     19  C15 UNK     0      -2.713  -1.933   0.701  0.00  0.00    +0.000 C 
BRANCH  16  20
ATOM     20  C17 UNK     0      -4.729   1.696  -0.615  0.00  0.00    +0.000 C 
BRANCH  20  21
ATOM     21  O1  UNK     0      -4.292   2.302  -1.801  0.00  0.00    +0.000 OA
ATOM     22  H40 UNK     0      -4.699   3.207  -1.815  0.00  0.00    +0.000 HD
ENDBRANCH  20  21
ENDBRANCH  16  20
ENDBRANCH   1  14
BRANCH   5  23
ATOM     23  N2  UNK     0       3.790  -0.373  -0.609  0.00  0.00    +0.000 NA
ATOM     24  H32 UNK     0       3.459   0.331  -1.310  0.00  0.00    +0.000 HD
BRANCH  23  25
ATOM     25  C8  UNK     0       5.148   0.003  -0.213  0.00  0.00    +0.000 C 
ATOM     26  C9  UNK     0       6.201  -0.496  -1.185  0.00  0.00    +0.000 C 
ATOM     27  C10 UNK     0       6.025  -1.179   0.162  0.00  0.00    +0.000 C 
ENDBRANCH  23  25
ENDBRANCH   5  23
TORSDOF 5
