REMARK  Name = C:\Users\Maximilian\Desktop\Conformers\converted_pdb\conformers_pdb\Lipid IVa_conf_57.pdb
REMARK  5 active torsions:
REMARK  status: ('A' for Active; 'I' for Inactive)
REMARK    1  A    between atoms: N3_1  and  C11_10
REMARK    2  A    between atoms: C16_5  and  N2_19
REMARK    3  A    between atoms: C12_12  and  C17_16
REMARK    4  A    between atoms: C17_16  and  O1_17
REMARK    5  A    between atoms: N2_19  and  C8_21
REMARK                            x       y       z     vdW  Elec       q    Type
REMARK                         _______ _______ _______ _____ _____    ______ ____
ROOT
ATOM      1  N3  UNK     0      -0.651   0.533  -0.105  0.00  0.00    +0.000 N 
ATOM      2  N4  UNK     0       0.970   1.260  -1.512  0.00  0.00    +0.000 NA
ATOM      3  N5  UNK     0       3.160   0.184   1.332  0.00  0.00    +0.000 NA
ATOM      4  N6  UNK     0       0.841  -0.230   1.725  0.00  0.00    +0.000 N 
ATOM      5  C16 UNK     0       2.973   0.678  -0.044  0.00  0.00    +0.000 C 
ATOM      6  C19 UNK     0       0.554   0.293   0.440  0.00  0.00    +0.000 A 
ATOM      7  C20 UNK     0       1.518   0.727  -0.404  0.00  0.00    +0.000 A 
ATOM      8  C21 UNK     0      -0.358   1.122  -1.293  0.00  0.00    +0.000 A 
ATOM      9  C22 UNK     0       2.220  -0.248   2.134  0.00  0.00    +0.000 C 
ATOM     10  N7  UNK     0       2.563  -0.670   3.455  0.00  0.00    +0.000 N 
ATOM     11  H41 UNK     0       1.819  -1.003   4.109  0.00  0.00    +0.000 HD
ATOM     12  H42 UNK     0       3.546  -0.589   3.794  0.00  0.00    +0.000 HD
ATOM     13  H1  UNL     1       0.090  -0.547   2.377  0.00  0.00    +0.000 HD
ENDROOT
BRANCH   1  14
ATOM     14  C11 UNK     0      -1.980   0.353   0.485  0.00  0.00    +0.000 C 
ATOM     15  C13 UNK     0      -2.863  -0.542  -0.422  0.00  0.00    +0.000 C 
ATOM     16  C12 UNK     0      -4.371  -0.320  -0.145  0.00  0.00    +0.000 C 
ATOM     17  C14 UNK     0      -4.712   1.158  -0.396  0.00  0.00    +0.000 C 
ATOM     18  C18 UNK     0      -3.840   2.050   0.447  0.00  0.00    +0.000 C 
ATOM     19  C15 UNK     0      -2.579   1.713   0.780  0.00  0.00    +0.000 C 
BRANCH  16  20
ATOM     20  C17 UNK     0      -5.252  -1.253  -0.987  0.00  0.00    +0.000 C 
BRANCH  20  21
ATOM     21  O1  UNK     0      -5.031  -1.048  -2.356  0.00  0.00    +0.000 OA
ATOM     22  H40 UNK     0      -5.429  -1.839  -2.811  0.00  0.00    +0.000 HD
ENDBRANCH  20  21
ENDBRANCH  16  20
ENDBRANCH   1  14
BRANCH   5  23
ATOM     23  N2  UNK     0       3.684  -0.184  -0.990  0.00  0.00    +0.000 NA
ATOM     24  H32 UNK     0       3.436  -1.180  -0.788  0.00  0.00    +0.000 HD
BRANCH  23  25
ATOM     25  C8  UNK     0       5.137   0.044  -0.894  0.00  0.00    +0.000 C 
ATOM     26  C9  UNK     0       5.970  -1.063  -1.529  0.00  0.00    +0.000 C 
ATOM     27  C10 UNK     0       5.907  -0.935  -0.012  0.00  0.00    +0.000 C 
ENDBRANCH  23  25
ENDBRANCH   5  23
TORSDOF 5
