REMARK  Name = C:\Users\Maximilian\Desktop\Conformers\converted_pdb\conformers_pdb\Lipid IVa_conf_73.pdb
REMARK  5 active torsions:
REMARK  status: ('A' for Active; 'I' for Inactive)
REMARK    1  A    between atoms: N3_1  and  C11_10
REMARK    2  A    between atoms: C16_5  and  N2_19
REMARK    3  A    between atoms: C12_12  and  C17_16
REMARK    4  A    between atoms: C17_16  and  O1_17
REMARK    5  A    between atoms: N2_19  and  C8_21
REMARK                            x       y       z     vdW  Elec       q    Type
REMARK                         _______ _______ _______ _____ _____    ______ ____
ROOT
ATOM      1  N3  UNK     0       0.168  -1.032   0.664  0.00  0.00    +0.000 N 
ATOM      2  N4  UNK     0      -1.623  -1.338   2.016  0.00  0.00    +0.000 NA
ATOM      3  N5  UNK     0      -2.518   2.075   0.702  0.00  0.00    +0.000 NA
ATOM      4  N6  UNK     0      -0.470   1.219  -0.187  0.00  0.00    +0.000 N 
ATOM      5  C16 UNK     0      -2.829   0.854   1.482  0.00  0.00    +0.000 C 
ATOM      6  C19 UNK     0      -0.651   0.029   0.575  0.00  0.00    +0.000 A 
ATOM      7  C20 UNK     0      -1.722  -0.156   1.378  0.00  0.00    +0.000 A 
ATOM      8  C21 UNK     0      -0.450  -1.844   1.554  0.00  0.00    +0.000 A 
ATOM      9  C22 UNK     0      -1.466   2.249  -0.060  0.00  0.00    +0.000 C 
ATOM     10  N7  UNK     0      -1.306   3.478  -0.766  0.00  0.00    +0.000 N 
ATOM     11  H41 UNK     0      -2.021   4.235  -0.682  0.00  0.00    +0.000 HD
ATOM     12  H42 UNK     0      -0.472   3.634  -1.374  0.00  0.00    +0.000 HD
ATOM     13  H1  UNL     1       0.364   1.356  -0.799  0.00  0.00    +0.000 HD
ENDROOT
BRANCH   1  14
ATOM     14  C11 UNK     0       1.464  -1.265   0.018  0.00  0.00    +0.000 C 
ATOM     15  C13 UNK     0       2.540  -0.347   0.630  0.00  0.00    +0.000 C 
ATOM     16  C12 UNK     0       3.823  -0.382  -0.218  0.00  0.00    +0.000 C 
ATOM     17  C14 UNK     0       3.511   0.119  -1.641  0.00  0.00    +0.000 C 
ATOM     18  C18 UNK     0       2.308  -0.566  -2.237  0.00  0.00    +0.000 C 
ATOM     19  C15 UNK     0       1.341  -1.114  -1.483  0.00  0.00    +0.000 C 
BRANCH  16  20
ATOM     20  C17 UNK     0       4.937   0.470   0.418  0.00  0.00    +0.000 C 
BRANCH  20  21
ATOM     21  O1  UNK     0       5.303  -0.043   1.671  0.00  0.00    +0.000 OA
ATOM     22  H40 UNK     0       5.841  -0.859   1.498  0.00  0.00    +0.000 HD
ENDBRANCH  20  21
ENDBRANCH  16  20
ENDBRANCH   1  14
BRANCH   5  23
ATOM     23  N2  UNK     0      -4.113   0.273   1.056  0.00  0.00    +0.000 NA
ATOM     24  H32 UNK     0      -4.857   0.990   1.220  0.00  0.00    +0.000 HD
BRANCH  23  25
ATOM     25  C8  UNK     0      -4.123  -0.045  -0.377  0.00  0.00    +0.000 C 
ATOM     26  C9  UNK     0      -5.277  -0.954  -0.763  0.00  0.00    +0.000 C 
ATOM     27  C10 UNK     0      -3.865  -1.509  -0.689  0.00  0.00    +0.000 C 
ENDBRANCH  23  25
ENDBRANCH   5  23
TORSDOF 5
