REMARK  Name = C:\Users\Maximilian\Desktop\Conformers\converted_pdb\conformers_pdb\Lipid IVa_conf_21.pdb
REMARK  5 active torsions:
REMARK  status: ('A' for Active; 'I' for Inactive)
REMARK    1  A    between atoms: N3_1  and  C11_10
REMARK    2  A    between atoms: C16_5  and  N2_19
REMARK    3  A    between atoms: C12_12  and  C17_16
REMARK    4  A    between atoms: C17_16  and  O1_17
REMARK    5  A    between atoms: N2_19  and  C8_21
REMARK                            x       y       z     vdW  Elec       q    Type
REMARK                         _______ _______ _______ _____ _____    ______ ____
ROOT
ATOM      1  N3  UNK     0      -0.557  -0.355   1.162  0.00  0.00    +0.000 N 
ATOM      2  N4  UNK     0       0.897   0.844   2.424  0.00  0.00    +0.000 NA
ATOM      3  N5  UNK     0       3.393  -1.362   0.669  0.00  0.00    +0.000 NA
ATOM      4  N6  UNK     0       1.132  -1.764   0.004  0.00  0.00    +0.000 N 
ATOM      5  C16 UNK     0       3.047  -0.283   1.624  0.00  0.00    +0.000 C 
ATOM      6  C19 UNK     0       0.694  -0.791   0.948  0.00  0.00    +0.000 A 
ATOM      7  C20 UNK     0       1.560  -0.085   1.710  0.00  0.00    +0.000 A 
ATOM      8  C21 UNK     0      -0.397   0.652   2.059  0.00  0.00    +0.000 A 
ATOM      9  C22 UNK     0       2.544  -2.029  -0.072  0.00  0.00    +0.000 C 
ATOM     10  N7  UNK     0       3.028  -3.030  -0.966  0.00  0.00    +0.000 N 
ATOM     11  H41 UNK     0       2.365  -3.572  -1.563  0.00  0.00    +0.000 HD
ATOM     12  H42 UNK     0       4.051  -3.230  -1.034  0.00  0.00    +0.000 HD
ATOM     13  H1  UNL     1       0.460  -2.272  -0.611  0.00  0.00    +0.000 HD
ENDROOT
BRANCH   1  14
ATOM     14  C11 UNK     0      -1.783  -0.735   0.449  0.00  0.00    +0.000 C 
ATOM     15  C13 UNK     0      -2.064   0.262  -0.692  0.00  0.00    +0.000 C 
ATOM     16  C12 UNK     0      -3.446   0.033  -1.387  0.00  0.00    +0.000 C 
ATOM     17  C14 UNK     0      -4.378  -0.950  -0.625  0.00  0.00    +0.000 C 
ATOM     18  C18 UNK     0      -4.201  -0.853   0.867  0.00  0.00    +0.000 C 
ATOM     19  C15 UNK     0      -2.969  -0.781   1.382  0.00  0.00    +0.000 C 
BRANCH  16  20
ATOM     20  C17 UNK     0      -4.160   1.369  -1.677  0.00  0.00    +0.000 C 
BRANCH  20  21
ATOM     21  O1  UNK     0      -4.619   1.966  -0.492  0.00  0.00    +0.000 OA
ATOM     22  H40 UNK     0      -3.940   2.636  -0.218  0.00  0.00    +0.000 HD
ENDBRANCH  20  21
ENDBRANCH  16  20
ENDBRANCH   1  14
BRANCH   5  23
ATOM     23  N2  UNK     0       3.722   0.971   1.257  0.00  0.00    +0.000 NA
ATOM     24  H32 UNK     0       4.753   0.828   1.379  0.00  0.00    +0.000 HD
BRANCH  23  25
ATOM     25  C8  UNK     0       3.396   1.381  -0.123  0.00  0.00    +0.000 C 
ATOM     26  C9  UNK     0       4.433   1.034  -1.182  0.00  0.00    +0.000 C 
ATOM     27  C10 UNK     0       4.323   2.460  -0.662  0.00  0.00    +0.000 C 
ENDBRANCH  23  25
ENDBRANCH   5  23
TORSDOF 5
