REMARK  Name = C:\Users\Maximilian\Desktop\Conformers\converted_pdb\conformers_pdb\Lipid IVa_conf_17.pdb
REMARK  5 active torsions:
REMARK  status: ('A' for Active; 'I' for Inactive)
REMARK    1  A    between atoms: N3_1  and  C11_10
REMARK    2  A    between atoms: C16_5  and  N2_19
REMARK    3  A    between atoms: C12_12  and  C17_16
REMARK    4  A    between atoms: C17_16  and  O1_17
REMARK    5  A    between atoms: N2_19  and  C8_21
REMARK                            x       y       z     vdW  Elec       q    Type
REMARK                         _______ _______ _______ _____ _____    ______ ____
ROOT
ATOM      1  N3  UNK     0      -0.607   0.620   0.223  0.00  0.00    +0.000 N 
ATOM      2  N4  UNK     0       1.136   2.023  -0.138  0.00  0.00    +0.000 NA
ATOM      3  N5  UNK     0       3.095  -0.989   0.960  0.00  0.00    +0.000 NA
ATOM      4  N6  UNK     0       0.734  -1.352   0.940  0.00  0.00    +0.000 N 
ATOM      5  C16 UNK     0       3.015   0.400   0.452  0.00  0.00    +0.000 C 
ATOM      6  C19 UNK     0       0.549  -0.025   0.455  0.00  0.00    +0.000 A 
ATOM      7  C20 UNK     0       1.589   0.812   0.237  0.00  0.00    +0.000 A 
ATOM      8  C21 UNK     0      -0.212   1.867  -0.137  0.00  0.00    +0.000 A 
ATOM      9  C22 UNK     0       2.082  -1.788   1.182  0.00  0.00    +0.000 C 
ATOM     10  N7  UNK     0       2.322  -3.106   1.673  0.00  0.00    +0.000 N 
ATOM     11  H41 UNK     0       1.525  -3.750   1.871  0.00  0.00    +0.000 HD
ATOM     12  H42 UNK     0       3.297  -3.437   1.851  0.00  0.00    +0.000 HD
ATOM     13  H1  UNL     1      -0.070  -1.987   1.129  0.00  0.00    +0.000 HD
ENDROOT
BRANCH   1  14
ATOM     14  C11 UNK     0      -1.982   0.130   0.371  0.00  0.00    +0.000 C 
ATOM     15  C13 UNK     0      -2.732   0.208  -0.972  0.00  0.00    +0.000 C 
ATOM     16  C12 UNK     0      -4.225  -0.094  -0.760  0.00  0.00    +0.000 C 
ATOM     17  C14 UNK     0      -4.839   0.957   0.186  0.00  0.00    +0.000 C 
ATOM     18  C18 UNK     0      -4.003   1.176   1.423  0.00  0.00    +0.000 C 
ATOM     19  C15 UNK     0      -2.690   0.895   1.468  0.00  0.00    +0.000 C 
BRANCH  16  20
ATOM     20  C17 UNK     0      -4.986  -0.175  -2.097  0.00  0.00    +0.000 C 
BRANCH  20  21
ATOM     21  O1  UNK     0      -4.845   1.006  -2.843  0.00  0.00    +0.000 OA
ATOM     22  H40 UNK     0      -5.605   1.597  -2.597  0.00  0.00    +0.000 HD
ENDBRANCH  20  21
ENDBRANCH  16  20
ENDBRANCH   1  14
BRANCH   5  23
ATOM     23  N2  UNK     0       3.752   0.522  -0.811  0.00  0.00    +0.000 NA
ATOM     24  H32 UNK     0       3.417  -0.224  -1.467  0.00  0.00    +0.000 HD
BRANCH  23  25
ATOM     25  C8  UNK     0       5.200   0.420  -0.568  0.00  0.00    +0.000 C 
ATOM     26  C9  UNK     0       6.007   0.137  -1.826  0.00  0.00    +0.000 C 
ATOM     27  C10 UNK     0       5.812  -0.957  -0.785  0.00  0.00    +0.000 C 
ENDBRANCH  23  25
ENDBRANCH   5  23
TORSDOF 5
