REMARK  Name = C:\Users\Maximilian\Desktop\Conformers\converted_pdb\conformers_pdb\Lipid IVa_conf_67.pdb
REMARK  5 active torsions:
REMARK  status: ('A' for Active; 'I' for Inactive)
REMARK    1  A    between atoms: N3_1  and  C11_10
REMARK    2  A    between atoms: C16_5  and  N2_19
REMARK    3  A    between atoms: C12_12  and  C17_16
REMARK    4  A    between atoms: C17_16  and  O1_17
REMARK    5  A    between atoms: N2_19  and  C8_21
REMARK                            x       y       z     vdW  Elec       q    Type
REMARK                         _______ _______ _______ _____ _____    ______ ____
ROOT
ATOM      1  N3  UNK     0       0.576  -0.082  -1.056  0.00  0.00    +0.000 N 
ATOM      2  N4  UNK     0      -1.279   1.085  -1.633  0.00  0.00    +0.000 NA
ATOM      3  N5  UNK     0      -2.944  -1.616   0.381  0.00  0.00    +0.000 NA
ATOM      4  N6  UNK     0      -0.564  -1.815   0.311  0.00  0.00    +0.000 N 
ATOM      5  C16 UNK     0      -2.997  -0.370  -0.418  0.00  0.00    +0.000 C 
ATOM      6  C19 UNK     0      -0.511  -0.670  -0.532  0.00  0.00    +0.000 A 
ATOM      7  C20 UNK     0      -1.621   0.018  -0.886  0.00  0.00    +0.000 A 
ATOM      8  C21 UNK     0       0.074   0.996  -1.710  0.00  0.00    +0.000 A 
ATOM      9  C22 UNK     0      -1.863  -2.269   0.728  0.00  0.00    +0.000 C 
ATOM     10  N7  UNK     0      -1.979  -3.450   1.520  0.00  0.00    +0.000 N 
ATOM     11  H41 UNK     0      -1.128  -3.984   1.802  0.00  0.00    +0.000 HD
ATOM     12  H42 UNK     0      -2.917  -3.792   1.827  0.00  0.00    +0.000 HD
ATOM     13  H1  UNL     1       0.300  -2.319   0.608  0.00  0.00    +0.000 HD
ENDROOT
BRANCH   1  14
ATOM     14  C11 UNK     0       1.986  -0.422  -0.833  0.00  0.00    +0.000 C 
ATOM     15  C13 UNK     0       2.526   0.366   0.373  0.00  0.00    +0.000 C 
ATOM     16  C12 UNK     0       4.052   0.214   0.474  0.00  0.00    +0.000 C 
ATOM     17  C14 UNK     0       4.711   0.784  -0.798  0.00  0.00    +0.000 C 
ATOM     18  C18 UNK     0       4.059   0.277  -2.060  0.00  0.00    +0.000 C 
ATOM     19  C15 UNK     0       2.798  -0.184  -2.089  0.00  0.00    +0.000 C 
BRANCH  16  20
ATOM     20  C17 UNK     0       4.583   0.917   1.736  0.00  0.00    +0.000 C 
BRANCH  20  21
ATOM     21  O1  UNK     0       5.968   0.737   1.863  0.00  0.00    +0.000 OA
ATOM     22  H40 UNK     0       6.106  -0.200   2.160  0.00  0.00    +0.000 HD
ENDBRANCH  20  21
ENDBRANCH  16  20
ENDBRANCH   1  14
BRANCH   5  23
ATOM     23  N2  UNK     0      -3.571   0.713   0.393  0.00  0.00    +0.000 NA
ATOM     24  H32 UNK     0      -3.506   1.607  -0.150  0.00  0.00    +0.000 HD
BRANCH  23  25
ATOM     25  C8  UNK     0      -4.976   0.409   0.718  0.00  0.00    +0.000 C 
ATOM     26  C9  UNK     0      -6.010   0.956  -0.257  0.00  0.00    +0.000 C 
ATOM     27  C10 UNK     0      -5.798   1.635   1.090  0.00  0.00    +0.000 C 
ENDBRANCH  23  25
ENDBRANCH   5  23
TORSDOF 5
