REMARK  Name = C:\Users\Maximilian\Desktop\Conformers\converted_pdb\conformers_pdb\Lipid IVa_conf_1.pdb
REMARK  5 active torsions:
REMARK  status: ('A' for Active; 'I' for Inactive)
REMARK    1  A    between atoms: N3_1  and  C11_10
REMARK    2  A    between atoms: C16_5  and  N2_19
REMARK    3  A    between atoms: C12_12  and  C17_16
REMARK    4  A    between atoms: C17_16  and  O1_17
REMARK    5  A    between atoms: N2_19  and  C8_21
REMARK                            x       y       z     vdW  Elec       q    Type
REMARK                         _______ _______ _______ _____ _____    ______ ____
ROOT
ATOM      1  N3  UNK     0      -0.657   0.725   0.035  0.00  0.00    +0.000 N 
ATOM      2  N4  UNK     0       1.029   1.621  -1.186  0.00  0.00    +0.000 NA
ATOM      3  N5  UNK     0       2.963  -1.157   0.445  0.00  0.00    +0.000 NA
ATOM      4  N6  UNK     0       0.658  -1.107   1.075  0.00  0.00    +0.000 N 
ATOM      5  C16 UNK     0       2.883   0.042  -0.422  0.00  0.00    +0.000 C 
ATOM      6  C19 UNK     0       0.484   0.063   0.284  0.00  0.00    +0.000 A 
ATOM      7  C20 UNK     0       1.494   0.605  -0.434  0.00  0.00    +0.000 A 
ATOM      8  C21 UNK     0      -0.292   1.663  -0.876  0.00  0.00    +0.000 A 
ATOM      9  C22 UNK     0       1.974  -1.686   1.122  0.00  0.00    +0.000 C 
ATOM     10  N7  UNK     0       2.208  -2.850   1.913  0.00  0.00    +0.000 N 
ATOM     11  H41 UNK     0       1.431  -3.284   2.458  0.00  0.00    +0.000 HD
ATOM     12  H42 UNK     0       3.159  -3.280   1.956  0.00  0.00    +0.000 HD
ATOM     13  H1  UNL     1      -0.136  -1.543   1.593  0.00  0.00    +0.000 HD
ENDROOT
BRANCH   1  14
ATOM     14  C11 UNK     0      -2.012   0.396   0.491  0.00  0.00    +0.000 C 
ATOM     15  C13 UNK     0      -2.688  -0.544  -0.522  0.00  0.00    +0.000 C 
ATOM     16  C12 UNK     0      -4.183  -0.702  -0.195  0.00  0.00    +0.000 C 
ATOM     17  C14 UNK     0      -4.875   0.671  -0.286  0.00  0.00    +0.000 C 
ATOM     18  C18 UNK     0      -4.128   1.743   0.466  0.00  0.00    +0.000 C 
ATOM     19  C15 UNK     0      -2.815   1.656   0.736  0.00  0.00    +0.000 C 
BRANCH  16  20
ATOM     20  C17 UNK     0      -4.859  -1.709  -1.142  0.00  0.00    +0.000 C 
BRANCH  20  21
ATOM     21  O1  UNK     0      -4.309  -2.990  -0.985  0.00  0.00    +0.000 OA
ATOM     22  H40 UNK     0      -4.665  -3.349  -0.131  0.00  0.00    +0.000 HD
ENDBRANCH  20  21
ENDBRANCH  16  20
ENDBRANCH   1  14
BRANCH   5  23
ATOM     23  N2  UNK     0       3.817   1.074   0.045  0.00  0.00    +0.000 NA
ATOM     24  H32 UNK     0       3.701   1.189   1.080  0.00  0.00    +0.000 HD
BRANCH  23  25
ATOM     25  C8  UNK     0       5.197   0.656  -0.201  0.00  0.00    +0.000 C 
ATOM     26  C9  UNK     0       6.164   1.826  -0.243  0.00  0.00    +0.000 C 
ATOM     27  C10 UNK     0       5.752   1.133  -1.532  0.00  0.00    +0.000 C 
ENDBRANCH  23  25
ENDBRANCH   5  23
TORSDOF 5
