REMARK  Name = C:\Users\Maximilian\Desktop\Conformers\converted_pdb\conformers_pdb\Lipid IVa_conf_58.pdb
REMARK  5 active torsions:
REMARK  status: ('A' for Active; 'I' for Inactive)
REMARK    1  A    between atoms: N3_1  and  C11_10
REMARK    2  A    between atoms: C16_5  and  N2_19
REMARK    3  A    between atoms: C12_12  and  C17_16
REMARK    4  A    between atoms: C17_16  and  O1_17
REMARK    5  A    between atoms: N2_19  and  C8_21
REMARK                            x       y       z     vdW  Elec       q    Type
REMARK                         _______ _______ _______ _____ _____    ______ ____
ROOT
ATOM      1  N3  UNK     0       0.417  -1.360   0.222  0.00  0.00    +0.000 N 
ATOM      2  N4  UNK     0      -1.741  -1.982   0.500  0.00  0.00    +0.000 NA
ATOM      3  N5  UNK     0      -2.329   1.091  -1.580  0.00  0.00    +0.000 NA
ATOM      4  N6  UNK     0      -0.022   0.695  -1.105  0.00  0.00    +0.000 N 
ATOM      5  C16 UNK     0      -2.831  -0.026  -0.746  0.00  0.00    +0.000 C 
ATOM      6  C19 UNK     0      -0.393  -0.459  -0.360  0.00  0.00    +0.000 A 
ATOM      7  C20 UNK     0      -1.683  -0.831  -0.199  0.00  0.00    +0.000 A 
ATOM      8  C21 UNK     0      -0.437  -2.272   0.743  0.00  0.00    +0.000 A 
ATOM      9  C22 UNK     0      -1.076   1.440  -1.736  0.00  0.00    +0.000 C 
ATOM     10  N7  UNK     0      -0.756   2.560  -2.560  0.00  0.00    +0.000 N 
ATOM     11  H41 UNK     0       0.238   2.846  -2.700  0.00  0.00    +0.000 HD
ATOM     12  H42 UNK     0      -1.512   3.105  -3.031  0.00  0.00    +0.000 HD
ATOM     13  H1  UNL     1       0.977   0.973  -1.224  0.00  0.00    +0.000 HD
ENDROOT
BRANCH   1  14
ATOM     14  C11 UNK     0       1.881  -1.375   0.312  0.00  0.00    +0.000 C 
ATOM     15  C13 UNK     0       2.390  -0.220   1.217  0.00  0.00    +0.000 C 
ATOM     16  C12 UNK     0       3.863   0.228   0.943  0.00  0.00    +0.000 C 
ATOM     17  C14 UNK     0       4.619  -0.772   0.037  0.00  0.00    +0.000 C 
ATOM     18  C18 UNK     0       3.808  -1.079  -1.190  0.00  0.00    +0.000 C 
ATOM     19  C15 UNK     0       2.503  -1.339  -1.064  0.00  0.00    +0.000 C 
BRANCH  16  20
ATOM     20  C17 UNK     0       3.903   1.657   0.353  0.00  0.00    +0.000 C 
BRANCH  20  21
ATOM     21  O1  UNK     0       5.224   2.106   0.209  0.00  0.00    +0.000 OA
ATOM     22  H40 UNK     0       5.553   2.321   1.121  0.00  0.00    +0.000 HD
ENDBRANCH  20  21
ENDBRANCH  16  20
ENDBRANCH   1  14
BRANCH   5  23
ATOM     23  N2  UNK     0      -3.635   0.515   0.361  0.00  0.00    +0.000 NA
ATOM     24  H32 UNK     0      -4.138   1.370   0.022  0.00  0.00    +0.000 HD
BRANCH  23  25
ATOM     25  C8  UNK     0      -4.597  -0.491   0.846  0.00  0.00    +0.000 C 
ATOM     26  C9  UNK     0      -5.970  -0.457   0.189  0.00  0.00    +0.000 C 
ATOM     27  C10 UNK     0      -5.782   0.103   1.593  0.00  0.00    +0.000 C 
ENDBRANCH  23  25
ENDBRANCH   5  23
TORSDOF 5
