REMARK  Name = C:\Users\Maximilian\Desktop\Conformers\converted_pdb\conformers_pdb\Lipid IVa_conf_59.pdb
REMARK  5 active torsions:
REMARK  status: ('A' for Active; 'I' for Inactive)
REMARK    1  A    between atoms: N3_1  and  C11_10
REMARK    2  A    between atoms: C16_5  and  N2_19
REMARK    3  A    between atoms: C12_12  and  C17_16
REMARK    4  A    between atoms: C17_16  and  O1_17
REMARK    5  A    between atoms: N2_19  and  C8_21
REMARK                            x       y       z     vdW  Elec       q    Type
REMARK                         _______ _______ _______ _____ _____    ______ ____
ROOT
ATOM      1  N3  UNK     0       0.156  -1.569   0.309  0.00  0.00    +0.000 N 
ATOM      2  N4  UNK     0       2.323  -1.971   0.882  0.00  0.00    +0.000 NA
ATOM      3  N5  UNK     0       2.067   1.575   2.127  0.00  0.00    +0.000 NA
ATOM      4  N6  UNK     0      -0.008   0.709   1.299  0.00  0.00    +0.000 N 
ATOM      5  C16 UNK     0       2.829   0.329   1.879  0.00  0.00    +0.000 C 
ATOM      6  C19 UNK     0       0.655  -0.501   0.948  0.00  0.00    +0.000 A 
ATOM      7  C20 UNK     0       1.959  -0.731   1.253  0.00  0.00    +0.000 A 
ATOM      8  C21 UNK     0       1.191  -2.458   0.320  0.00  0.00    +0.000 A 
ATOM      9  C22 UNK     0       0.797   1.774   1.850  0.00  0.00    +0.000 C 
ATOM     10  N7  UNK     0       0.201   3.039   2.143  0.00  0.00    +0.000 N 
ATOM     11  H41 UNK     0      -0.808   3.215   1.930  0.00  0.00    +0.000 HD
ATOM     12  H42 UNK     0       0.808   3.848   2.419  0.00  0.00    +0.000 HD
ATOM     13  H1  UNL     1      -1.056   0.801   1.304  0.00  0.00    +0.000 HD
ENDROOT
BRANCH   1  14
ATOM     14  C11 UNK     0      -1.202  -1.870  -0.164  0.00  0.00    +0.000 C 
ATOM     15  C13 UNK     0      -1.758  -0.796  -1.122  0.00  0.00    +0.000 C 
ATOM     16  C12 UNK     0      -3.242  -1.077  -1.443  0.00  0.00    +0.000 C 
ATOM     17  C14 UNK     0      -4.072  -1.140  -0.147  0.00  0.00    +0.000 C 
ATOM     18  C18 UNK     0      -3.434  -1.967   0.935  0.00  0.00    +0.000 C 
ATOM     19  C15 UNK     0      -2.106  -2.147   1.007  0.00  0.00    +0.000 C 
BRANCH  16  20
ATOM     20  C17 UNK     0      -3.839   0.002  -2.370  0.00  0.00    +0.000 C 
BRANCH  20  21
ATOM     21  O1  UNK     0      -3.113   0.095  -3.566  0.00  0.00    +0.000 OA
ATOM     22  H40 UNK     0      -3.425  -0.643  -4.150  0.00  0.00    +0.000 HD
ENDBRANCH  20  21
ENDBRANCH  16  20
ENDBRANCH   1  14
BRANCH   5  23
ATOM     23  N2  UNK     0       4.012   0.619   1.048  0.00  0.00    +0.000 NA
ATOM     24  H32 UNK     0       4.517  -0.280   0.855  0.00  0.00    +0.000 HD
BRANCH  23  25
ATOM     25  C8  UNK     0       3.635   1.216  -0.235  0.00  0.00    +0.000 C 
ATOM     26  C9  UNK     0       4.828   1.692  -1.040  0.00  0.00    +0.000 C 
ATOM     27  C10 UNK     0       3.942   2.697  -0.322  0.00  0.00    +0.000 C 
ENDBRANCH  23  25
ENDBRANCH   5  23
TORSDOF 5
