REMARK  Name = C:\Users\Maximilian\Desktop\Conformers\converted_pdb\conformers_pdb\Lipid IVa_conf_48.pdb
REMARK  5 active torsions:
REMARK  status: ('A' for Active; 'I' for Inactive)
REMARK    1  A    between atoms: N3_1  and  C11_10
REMARK    2  A    between atoms: C16_5  and  N2_19
REMARK    3  A    between atoms: C12_12  and  C17_16
REMARK    4  A    between atoms: C17_16  and  O1_17
REMARK    5  A    between atoms: N2_19  and  C8_21
REMARK                            x       y       z     vdW  Elec       q    Type
REMARK                         _______ _______ _______ _____ _____    ______ ____
ROOT
ATOM      1  N3  UNK     0      -0.579  -0.197  -0.453  0.00  0.00    +0.000 N 
ATOM      2  N4  UNK     0       0.780   1.161   0.749  0.00  0.00    +0.000 NA
ATOM      3  N5  UNK     0       3.042  -1.826   0.577  0.00  0.00    +0.000 NA
ATOM      4  N6  UNK     0       0.965  -2.143  -0.562  0.00  0.00    +0.000 N 
ATOM      5  C16 UNK     0       2.807  -0.400   0.884  0.00  0.00    +0.000 C 
ATOM      6  C19 UNK     0       0.608  -0.798  -0.258  0.00  0.00    +0.000 A 
ATOM      7  C20 UNK     0       1.424   0.018   0.450  0.00  0.00    +0.000 A 
ATOM      8  C21 UNK     0      -0.442   0.993   0.184  0.00  0.00    +0.000 A 
ATOM      9  C22 UNK     0       2.235  -2.618  -0.084  0.00  0.00    +0.000 C 
ATOM     10  N7  UNK     0       2.614  -3.974  -0.312  0.00  0.00    +0.000 N 
ATOM     11  H41 UNK     0       1.979  -4.621  -0.831  0.00  0.00    +0.000 HD
ATOM     12  H42 UNK     0       3.530  -4.335   0.036  0.00  0.00    +0.000 HD
ATOM     13  H1  UNL     1       0.315  -2.784  -1.066  0.00  0.00    +0.000 HD
ENDROOT
BRANCH   1  14
ATOM     14  C11 UNK     0      -1.795  -0.773  -1.045  0.00  0.00    +0.000 C 
ATOM     15  C13 UNK     0      -2.542   0.259  -1.950  0.00  0.00    +0.000 C 
ATOM     16  C12 UNK     0      -3.999   0.575  -1.530  0.00  0.00    +0.000 C 
ATOM     17  C14 UNK     0      -4.717  -0.719  -1.116  0.00  0.00    +0.000 C 
ATOM     18  C18 UNK     0      -3.981  -1.397   0.002  0.00  0.00    +0.000 C 
ATOM     19  C15 UNK     0      -2.643  -1.396   0.045  0.00  0.00    +0.000 C 
BRANCH  16  20
ATOM     20  C17 UNK     0      -4.083   1.645  -0.425  0.00  0.00    +0.000 C 
BRANCH  20  21
ATOM     21  O1  UNK     0      -3.550   2.857  -0.885  0.00  0.00    +0.000 OA
ATOM     22  H40 UNK     0      -3.609   3.491  -0.124  0.00  0.00    +0.000 HD
ENDBRANCH  20  21
ENDBRANCH  16  20
ENDBRANCH   1  14
BRANCH   5  23
ATOM     23  N2  UNK     0       3.844   0.398   0.214  0.00  0.00    +0.000 NA
ATOM     24  H32 UNK     0       3.596   0.524  -0.796  0.00  0.00    +0.000 HD
BRANCH  23  25
ATOM     25  C8  UNK     0       3.972   1.723   0.824  0.00  0.00    +0.000 C 
ATOM     26  C9  UNK     0       5.349   2.328   0.614  0.00  0.00    +0.000 C 
ATOM     27  C10 UNK     0       4.959   1.778   1.977  0.00  0.00    +0.000 C 
ENDBRANCH  23  25
ENDBRANCH   5  23
TORSDOF 5
