REMARK  Name = C:\Users\Maximilian\Desktop\Conformers\converted_pdb\conformers_pdb\Lipid IVa_conf_24.pdb
REMARK  5 active torsions:
REMARK  status: ('A' for Active; 'I' for Inactive)
REMARK    1  A    between atoms: N3_1  and  C11_10
REMARK    2  A    between atoms: C16_5  and  N2_19
REMARK    3  A    between atoms: C12_12  and  C17_16
REMARK    4  A    between atoms: C17_16  and  O1_17
REMARK    5  A    between atoms: N2_19  and  C8_21
REMARK                            x       y       z     vdW  Elec       q    Type
REMARK                         _______ _______ _______ _____ _____    ______ ____
ROOT
ATOM      1  N3  UNK     0      -0.629  -0.083  -0.618  0.00  0.00    +0.000 N 
ATOM      2  N4  UNK     0       1.091  -1.464  -1.136  0.00  0.00    +0.000 NA
ATOM      3  N5  UNK     0       2.946   0.865   1.149  0.00  0.00    +0.000 NA
ATOM      4  N6  UNK     0       0.638   1.430   0.891  0.00  0.00    +0.000 N 
ATOM      5  C16 UNK     0       2.914  -0.269   0.197  0.00  0.00    +0.000 C 
ATOM      6  C19 UNK     0       0.496   0.355  -0.032  0.00  0.00    +0.000 A 
ATOM      7  C20 UNK     0       1.527  -0.461  -0.351  0.00  0.00    +0.000 A 
ATOM      8  C21 UNK     0      -0.234  -1.202  -1.275  0.00  0.00    +0.000 A 
ATOM      9  C22 UNK     0       1.938   1.639   1.468  0.00  0.00    +0.000 C 
ATOM     10  N7  UNK     0       2.134   2.696   2.406  0.00  0.00    +0.000 N 
ATOM     11  H41 UNK     0       1.341   3.322   2.671  0.00  0.00    +0.000 HD
ATOM     12  H42 UNK     0       3.072   2.856   2.836  0.00  0.00    +0.000 HD
ATOM     13  H1  UNL     1      -0.170   2.029   1.165  0.00  0.00    +0.000 HD
ENDROOT
BRANCH   1  14
ATOM     14  C11 UNK     0      -1.997   0.423  -0.446  0.00  0.00    +0.000 C 
ATOM     15  C13 UNK     0      -2.734  -0.395   0.636  0.00  0.00    +0.000 C 
ATOM     16  C12 UNK     0      -4.266  -0.085   0.726  0.00  0.00    +0.000 C 
ATOM     17  C14 UNK     0      -4.773   0.849  -0.405  0.00  0.00    +0.000 C 
ATOM     18  C18 UNK     0      -4.096   0.552  -1.714  0.00  0.00    +0.000 C 
ATOM     19  C15 UNK     0      -2.771   0.369  -1.741  0.00  0.00    +0.000 C 
BRANCH  16  20
ATOM     20  C17 UNK     0      -5.096  -1.386   0.761  0.00  0.00    +0.000 C 
BRANCH  20  21
ATOM     21  O1  UNK     0      -4.711  -2.195   1.841  0.00  0.00    +0.000 OA
ATOM     22  H40 UNK     0      -5.083  -1.773   2.658  0.00  0.00    +0.000 HD
ENDBRANCH  20  21
ENDBRANCH  16  20
ENDBRANCH   1  14
BRANCH   5  23
ATOM     23  N2  UNK     0       3.854  -0.019  -0.904  0.00  0.00    +0.000 NA
ATOM     24  H32 UNK     0       3.739  -0.778  -1.618  0.00  0.00    +0.000 HD
BRANCH  23  25
ATOM     25  C8  UNK     0       5.236   0.003  -0.392  0.00  0.00    +0.000 C 
ATOM     26  C9  UNK     0       6.288  -0.263  -1.459  0.00  0.00    +0.000 C 
ATOM     27  C10 UNK     0       5.970  -1.331  -0.421  0.00  0.00    +0.000 C 
ENDBRANCH  23  25
ENDBRANCH   5  23
TORSDOF 5
