REMARK  Name = C:\Users\Maximilian\Desktop\Conformers\converted_pdb\conformers_pdb\Lipid IVa_conf_28.pdb
REMARK  5 active torsions:
REMARK  status: ('A' for Active; 'I' for Inactive)
REMARK    1  A    between atoms: N3_1  and  C11_10
REMARK    2  A    between atoms: C16_5  and  N2_19
REMARK    3  A    between atoms: C12_12  and  C17_16
REMARK    4  A    between atoms: C17_16  and  O1_17
REMARK    5  A    between atoms: N2_19  and  C8_21
REMARK                            x       y       z     vdW  Elec       q    Type
REMARK                         _______ _______ _______ _____ _____    ______ ____
ROOT
ATOM      1  N3  UNK     0       0.529   0.152  -0.638  0.00  0.00    +0.000 N 
ATOM      2  N4  UNK     0      -1.258   1.504  -0.982  0.00  0.00    +0.000 NA
ATOM      3  N5  UNK     0      -2.935  -1.059   1.195  0.00  0.00    +0.000 NA
ATOM      4  N6  UNK     0      -0.618  -1.507   0.814  0.00  0.00    +0.000 N 
ATOM      5  C16 UNK     0      -2.968   0.160   0.352  0.00  0.00    +0.000 C 
ATOM      6  C19 UNK     0      -0.552  -0.364  -0.032  0.00  0.00    +0.000 A 
ATOM      7  C20 UNK     0      -1.622   0.435  -0.248  0.00  0.00    +0.000 A 
ATOM      8  C21 UNK     0       0.066   1.299  -1.198  0.00  0.00    +0.000 A 
ATOM      9  C22 UNK     0      -1.888  -1.816   1.413  0.00  0.00    +0.000 C 
ATOM     10  N7  UNK     0      -2.013  -2.960   2.257  0.00  0.00    +0.000 N 
ATOM     11  H41 UNK     0      -2.930  -3.196   2.698  0.00  0.00    +0.000 HD
ATOM     12  H42 UNK     0      -1.190  -3.574   2.441  0.00  0.00    +0.000 HD
ATOM     13  H1  UNL     1       0.221  -2.096   1.009  0.00  0.00    +0.000 HD
ENDROOT
BRANCH   1  14
ATOM     14  C11 UNK     0       1.920  -0.312  -0.560  0.00  0.00    +0.000 C 
ATOM     15  C13 UNK     0       2.686   0.482   0.516  0.00  0.00    +0.000 C 
ATOM     16  C12 UNK     0       4.209   0.139   0.567  0.00  0.00    +0.000 C 
ATOM     17  C14 UNK     0       4.714  -0.641  -0.683  0.00  0.00    +0.000 C 
ATOM     18  C18 UNK     0       3.957  -0.273  -1.931  0.00  0.00    +0.000 C 
ATOM     19  C15 UNK     0       2.625  -0.156  -1.885  0.00  0.00    +0.000 C 
BRANCH  16  20
ATOM     20  C17 UNK     0       5.040   1.414   0.800  0.00  0.00    +0.000 C 
BRANCH  20  21
ATOM     21  O1  UNK     0       6.368   1.080   1.095  0.00  0.00    +0.000 OA
ATOM     22  H40 UNK     0       6.849   1.940   1.213  0.00  0.00    +0.000 HD
ENDBRANCH  20  21
ENDBRANCH  16  20
ENDBRANCH   1  14
BRANCH   5  23
ATOM     23  N2  UNK     0      -3.954   0.010  -0.724  0.00  0.00    +0.000 NA
ATOM     24  H32 UNK     0      -3.812  -0.919  -1.184  0.00  0.00    +0.000 HD
BRANCH  23  25
ATOM     25  C8  UNK     0      -5.310   0.027  -0.174  0.00  0.00    +0.000 C 
ATOM     26  C9  UNK     0      -6.357   0.401  -1.208  0.00  0.00    +0.000 C 
ATOM     27  C10 UNK     0      -5.941   1.408  -0.147  0.00  0.00    +0.000 C 
ENDBRANCH  23  25
ENDBRANCH   5  23
TORSDOF 5
