REMARK  Name = C:\Users\Maximilian\Desktop\Conformers\converted_pdb\conformers_pdb\Lipid IVa_conf_71.pdb
REMARK  5 active torsions:
REMARK  status: ('A' for Active; 'I' for Inactive)
REMARK    1  A    between atoms: N3_1  and  C11_10
REMARK    2  A    between atoms: C16_5  and  N2_19
REMARK    3  A    between atoms: C12_12  and  C17_16
REMARK    4  A    between atoms: C17_16  and  O1_17
REMARK    5  A    between atoms: N2_19  and  C8_21
REMARK                            x       y       z     vdW  Elec       q    Type
REMARK                         _______ _______ _______ _____ _____    ______ ____
ROOT
ATOM      1  N3  UNK     0      -0.204   0.716   1.011  0.00  0.00    +0.000 N 
ATOM      2  N4  UNK     0       1.983   1.283   1.261  0.00  0.00    +0.000 NA
ATOM      3  N5  UNK     0       2.547  -2.046  -0.356  0.00  0.00    +0.000 NA
ATOM      4  N6  UNK     0       0.233  -1.525  -0.063  0.00  0.00    +0.000 N 
ATOM      5  C16 UNK     0       3.034  -0.740   0.122  0.00  0.00    +0.000 C 
ATOM      6  C19 UNK     0       0.586  -0.241   0.460  0.00  0.00    +0.000 A 
ATOM      7  C20 UNK     0       1.890   0.113   0.609  0.00  0.00    +0.000 A 
ATOM      8  C21 UNK     0       0.692   1.619   1.488  0.00  0.00    +0.000 A 
ATOM      9  C22 UNK     0       1.295  -2.409  -0.460  0.00  0.00    +0.000 C 
ATOM     10  N7  UNK     0       0.983  -3.714  -0.948  0.00  0.00    +0.000 N 
ATOM     11  H41 UNK     0       1.745  -4.370  -1.230  0.00  0.00    +0.000 HD
ATOM     12  H42 UNK     0      -0.009  -4.026  -1.032  0.00  0.00    +0.000 HD
ATOM     13  H1  UNL     1      -0.732  -1.904  -0.059  0.00  0.00    +0.000 HD
ENDROOT
BRANCH   1  14
ATOM     14  C11 UNK     0      -1.666   0.936   1.088  0.00  0.00    +0.000 C 
ATOM     15  C13 UNK     0      -2.533  -0.281   0.736  0.00  0.00    +0.000 C 
ATOM     16  C12 UNK     0      -4.020   0.095   0.875  0.00  0.00    +0.000 C 
ATOM     17  C14 UNK     0      -4.372   1.211  -0.134  0.00  0.00    +0.000 C 
ATOM     18  C18 UNK     0      -3.318   2.292  -0.218  0.00  0.00    +0.000 C 
ATOM     19  C15 UNK     0      -2.065   2.127   0.240  0.00  0.00    +0.000 C 
BRANCH  16  20
ATOM     20  C17 UNK     0      -4.912  -1.140   0.669  0.00  0.00    +0.000 C 
BRANCH  20  21
ATOM     21  O1  UNK     0      -6.256  -0.800   0.871  0.00  0.00    +0.000 OA
ATOM     22  H40 UNK     0      -6.777  -1.630   0.714  0.00  0.00    +0.000 HD
ENDBRANCH  20  21
ENDBRANCH  16  20
ENDBRANCH   1  14
BRANCH   5  23
ATOM     23  N2  UNK     0       3.764  -0.087  -0.975  0.00  0.00    +0.000 NA
ATOM     24  H32 UNK     0       3.087   0.373  -1.628  0.00  0.00    +0.000 HD
BRANCH  23  25
ATOM     25  C8  UNK     0       4.682   0.936  -0.470  0.00  0.00    +0.000 C 
ATOM     26  C9  UNK     0       5.842   1.192  -1.416  0.00  0.00    +0.000 C 
ATOM     27  C10 UNK     0       6.066   0.408  -0.133  0.00  0.00    +0.000 C 
ENDBRANCH  23  25
ENDBRANCH   5  23
TORSDOF 5
