REMARK  Name = C:\Users\Maximilian\Desktop\Conformers\converted_pdb\conformers_pdb\Lipid IVa_conf_66.pdb
REMARK  5 active torsions:
REMARK  status: ('A' for Active; 'I' for Inactive)
REMARK    1  A    between atoms: N3_1  and  C11_10
REMARK    2  A    between atoms: C16_5  and  N2_19
REMARK    3  A    between atoms: C12_12  and  C17_16
REMARK    4  A    between atoms: C17_16  and  O1_17
REMARK    5  A    between atoms: N2_19  and  C8_21
REMARK                            x       y       z     vdW  Elec       q    Type
REMARK                         _______ _______ _______ _____ _____    ______ ____
ROOT
ATOM      1  N3  UNK     0      -0.485  -0.928   0.846  0.00  0.00    +0.000 N 
ATOM      2  N4  UNK     0       1.058  -2.581   0.967  0.00  0.00    +0.000 NA
ATOM      3  N5  UNK     0       2.475  -0.737  -1.995  0.00  0.00    +0.000 NA
ATOM      4  N6  UNK     0       0.493   0.263  -1.108  0.00  0.00    +0.000 N 
ATOM      5  C16 UNK     0       2.536  -1.811  -0.980  0.00  0.00    +0.000 C 
ATOM      6  C19 UNK     0       0.442  -0.752  -0.111  0.00  0.00    +0.000 A 
ATOM      7  C20 UNK     0       1.365  -1.736  -0.036  0.00  0.00    +0.000 A 
ATOM      8  C21 UNK     0      -0.083  -2.055   1.482  0.00  0.00    +0.000 A 
ATOM      9  C22 UNK     0       1.568   0.206  -2.062  0.00  0.00    +0.000 C 
ATOM     10  N7  UNK     0       1.648   1.186  -3.096  0.00  0.00    +0.000 N 
ATOM     11  H41 UNK     0       2.425   1.158  -3.794  0.00  0.00    +0.000 HD
ATOM     12  H42 UNK     0       0.933   1.943  -3.164  0.00  0.00    +0.000 HD
ATOM     13  H1  UNL     1      -0.229   1.015  -1.163  0.00  0.00    +0.000 HD
ENDROOT
BRANCH   1  14
ATOM     14  C11 UNK     0      -1.696  -0.149   1.125  0.00  0.00    +0.000 C 
ATOM     15  C13 UNK     0      -2.746  -0.380   0.022  0.00  0.00    +0.000 C 
ATOM     16  C12 UNK     0      -3.897   0.634   0.150  0.00  0.00    +0.000 C 
ATOM     17  C14 UNK     0      -3.339   2.062   0.003  0.00  0.00    +0.000 C 
ATOM     18  C18 UNK     0      -2.143   2.306   0.888  0.00  0.00    +0.000 C 
ATOM     19  C15 UNK     0      -1.352   1.311   1.322  0.00  0.00    +0.000 C 
BRANCH  16  20
ATOM     20  C17 UNK     0      -4.992   0.378  -0.899  0.00  0.00    +0.000 C 
BRANCH  20  21
ATOM     21  O1  UNK     0      -5.635  -0.846  -0.654  0.00  0.00    +0.000 OA
ATOM     22  H40 UNK     0      -5.175  -1.531  -1.206  0.00  0.00    +0.000 HD
ENDBRANCH  20  21
ENDBRANCH  16  20
ENDBRANCH   1  14
BRANCH   5  23
ATOM     23  N2  UNK     0       3.823  -1.763  -0.266  0.00  0.00    +0.000 NA
ATOM     24  H32 UNK     0       3.844  -2.535   0.440  0.00  0.00    +0.000 HD
BRANCH  23  25
ATOM     25  C8  UNK     0       4.004  -0.496   0.451  0.00  0.00    +0.000 C 
ATOM     26  C9  UNK     0       4.826   0.531  -0.309  0.00  0.00    +0.000 C 
ATOM     27  C10 UNK     0       5.452  -0.246   0.837  0.00  0.00    +0.000 C 
ENDBRANCH  23  25
ENDBRANCH   5  23
TORSDOF 5
