REMARK  Name = C:\Users\Maximilian\Desktop\Conformers\converted_pdb\conformers_pdb\Lipid IVa_conf_3.pdb
REMARK  5 active torsions:
REMARK  status: ('A' for Active; 'I' for Inactive)
REMARK    1  A    between atoms: N3_1  and  C11_10
REMARK    2  A    between atoms: C16_5  and  N2_19
REMARK    3  A    between atoms: C12_12  and  C17_16
REMARK    4  A    between atoms: C17_16  and  O1_17
REMARK    5  A    between atoms: N2_19  and  C8_21
REMARK                            x       y       z     vdW  Elec       q    Type
REMARK                         _______ _______ _______ _____ _____    ______ ____
ROOT
ATOM      1  N3  UNK     0      -0.495  -1.573  -0.274  0.00  0.00    +0.000 N 
ATOM      2  N4  UNK     0       1.648  -2.190  -0.664  0.00  0.00    +0.000 NA
ATOM      3  N5  UNK     0       2.335   1.049   1.115  0.00  0.00    +0.000 NA
ATOM      4  N6  UNK     0       0.005   0.576   0.871  0.00  0.00    +0.000 N 
ATOM      5  C16 UNK     0       2.793  -0.156   0.385  0.00  0.00    +0.000 C 
ATOM      6  C19 UNK     0       0.340  -0.633   0.200  0.00  0.00    +0.000 A 
ATOM      7  C20 UNK     0       1.620  -1.001  -0.030  0.00  0.00    +0.000 A 
ATOM      8  C21 UNK     0       0.335  -2.506  -0.800  0.00  0.00    +0.000 A 
ATOM      9  C22 UNK     0       1.091   1.397   1.334  0.00  0.00    +0.000 C 
ATOM     10  N7  UNK     0       0.813   2.600   2.048  0.00  0.00    +0.000 N 
ATOM     11  H41 UNK     0      -0.173   2.890   2.233  0.00  0.00    +0.000 HD
ATOM     12  H42 UNK     0       1.592   3.205   2.392  0.00  0.00    +0.000 HD
ATOM     13  H1  UNL     1      -0.986   0.853   1.041  0.00  0.00    +0.000 HD
ENDROOT
BRANCH   1  14
ATOM     14  C11 UNK     0      -1.962  -1.600  -0.278  0.00  0.00    +0.000 C 
ATOM     15  C13 UNK     0      -2.530  -0.516  -1.233  0.00  0.00    +0.000 C 
ATOM     16  C12 UNK     0      -4.005  -0.088  -0.932  0.00  0.00    +0.000 C 
ATOM     17  C14 UNK     0      -4.689  -1.013   0.101  0.00  0.00    +0.000 C 
ATOM     18  C18 UNK     0      -3.805  -1.201   1.302  0.00  0.00    +0.000 C 
ATOM     19  C15 UNK     0      -2.506  -1.460   1.124  0.00  0.00    +0.000 C 
BRANCH  16  20
ATOM     20  C17 UNK     0      -4.082   1.384  -0.470  0.00  0.00    +0.000 C 
BRANCH  20  21
ATOM     21  O1  UNK     0      -3.617   2.247  -1.474  0.00  0.00    +0.000 OA
ATOM     22  H40 UNK     0      -4.329   2.289  -2.164  0.00  0.00    +0.000 HD
ENDBRANCH  20  21
ENDBRANCH  16  20
ENDBRANCH   1  14
BRANCH   5  23
ATOM     23  N2  UNK     0       3.562   0.247  -0.801  0.00  0.00    +0.000 NA
ATOM     24  H32 UNK     0       3.786  -0.612  -1.359  0.00  0.00    +0.000 HD
BRANCH  23  25
ATOM     25  C8  UNK     0       4.798   0.934  -0.391  0.00  0.00    +0.000 C 
ATOM     26  C9  UNK     0       5.882   0.935  -1.460  0.00  0.00    +0.000 C 
ATOM     27  C10 UNK     0       6.024   0.045  -0.233  0.00  0.00    +0.000 C 
ENDBRANCH  23  25
ENDBRANCH   5  23
TORSDOF 5
