REMARK  Name = C:\Users\Maximilian\Desktop\Conformers\converted_pdb\conformers_pdb\Lipid IVa_conf_63.pdb
REMARK  5 active torsions:
REMARK  status: ('A' for Active; 'I' for Inactive)
REMARK    1  A    between atoms: N3_1  and  C11_10
REMARK    2  A    between atoms: C16_5  and  N2_19
REMARK    3  A    between atoms: C12_12  and  C17_16
REMARK    4  A    between atoms: C17_16  and  O1_17
REMARK    5  A    between atoms: N2_19  and  C8_21
REMARK                            x       y       z     vdW  Elec       q    Type
REMARK                         _______ _______ _______ _____ _____    ______ ____
ROOT
ATOM      1  N3  UNK     0       0.027   0.357  -0.531  0.00  0.00    +0.000 N 
ATOM      2  N4  UNK     0      -1.727   1.781  -0.355  0.00  0.00    +0.000 NA
ATOM      3  N5  UNK     0      -2.366  -0.250   2.748  0.00  0.00    +0.000 NA
ATOM      4  N6  UNK     0      -0.428  -0.948   1.534  0.00  0.00    +0.000 N 
ATOM      5  C16 UNK     0      -2.753   0.791   1.768  0.00  0.00    +0.000 C 
ATOM      6  C19 UNK     0      -0.710   0.035   0.543  0.00  0.00    +0.000 A 
ATOM      7  C20 UNK     0      -1.764   0.876   0.642  0.00  0.00    +0.000 A 
ATOM      8  C21 UNK     0      -0.613   1.435  -1.050  0.00  0.00    +0.000 A 
ATOM      9  C22 UNK     0      -1.325  -1.040   2.655  0.00  0.00    +0.000 C 
ATOM     10  N7  UNK     0      -1.080  -2.002   3.680  0.00  0.00    +0.000 N 
ATOM     11  H41 UNK     0      -1.724  -2.081   4.498  0.00  0.00    +0.000 HD
ATOM     12  H42 UNK     0      -0.255  -2.639   3.621  0.00  0.00    +0.000 HD
ATOM     13  H1  UNL     1       0.412  -1.564   1.470  0.00  0.00    +0.000 HD
ENDROOT
BRANCH   1  14
ATOM     14  C11 UNK     0       1.319  -0.204  -0.943  0.00  0.00    +0.000 C 
ATOM     15  C13 UNK     0       2.464   0.600  -0.303  0.00  0.00    +0.000 C 
ATOM     16  C12 UNK     0       3.815   0.189  -0.914  0.00  0.00    +0.000 C 
ATOM     17  C14 UNK     0       3.809   0.493  -2.424  0.00  0.00    +0.000 C 
ATOM     18  C18 UNK     0       2.570  -0.027  -3.110  0.00  0.00    +0.000 C 
ATOM     19  C15 UNK     0       1.421  -0.256  -2.453  0.00  0.00    +0.000 C 
BRANCH  16  20
ATOM     20  C17 UNK     0       4.982   0.914  -0.225  0.00  0.00    +0.000 C 
BRANCH  20  21
ATOM     21  O1  UNK     0       5.070   0.516   1.116  0.00  0.00    +0.000 OA
ATOM     22  H40 UNK     0       5.829   1.024   1.505  0.00  0.00    +0.000 HD
ENDBRANCH  20  21
ENDBRANCH  16  20
ENDBRANCH   1  14
BRANCH   5  23
ATOM     23  N2  UNK     0      -4.113   0.553   1.260  0.00  0.00    +0.000 NA
ATOM     24  H32 UNK     0      -4.768   0.575   2.076  0.00  0.00    +0.000 HD
BRANCH  23  25
ATOM     25  C8  UNK     0      -4.241  -0.769   0.635  0.00  0.00    +0.000 C 
ATOM     26  C9  UNK     0      -4.159  -0.746  -0.882  0.00  0.00    +0.000 C 
ATOM     27  C10 UNK     0      -5.506  -0.900  -0.196  0.00  0.00    +0.000 C 
ENDBRANCH  23  25
ENDBRANCH   5  23
TORSDOF 5
