REMARK  Name = C:\Users\Maximilian\Desktop\Conformers\converted_pdb\conformers_pdb\Lipid IVa_conf_4.pdb
REMARK  5 active torsions:
REMARK  status: ('A' for Active; 'I' for Inactive)
REMARK    1  A    between atoms: N3_1  and  C11_10
REMARK    2  A    between atoms: C16_5  and  N2_19
REMARK    3  A    between atoms: C12_12  and  C17_16
REMARK    4  A    between atoms: C17_16  and  O1_17
REMARK    5  A    between atoms: N2_19  and  C8_21
REMARK                            x       y       z     vdW  Elec       q    Type
REMARK                         _______ _______ _______ _____ _____    ______ ____
ROOT
ATOM      1  N3  UNK     0      -0.992  -0.207   1.257  0.00  0.00    +0.000 N 
ATOM      2  N4  UNK     0       0.581  -1.836   1.435  0.00  0.00    +0.000 NA
ATOM      3  N5  UNK     0       2.342   0.269  -1.119  0.00  0.00    +0.000 NA
ATOM      4  N6  UNK     0       0.250   1.190  -0.424  0.00  0.00    +0.000 N 
ATOM      5  C16 UNK     0       2.296  -0.877  -0.186  0.00  0.00    +0.000 C 
ATOM      6  C19 UNK     0       0.060   0.080   0.454  0.00  0.00    +0.000 A 
ATOM      7  C20 UNK     0       0.994  -0.898   0.565  0.00  0.00    +0.000 A 
ATOM      8  C21 UNK     0      -0.630  -1.380   1.836  0.00  0.00    +0.000 A 
ATOM      9  C22 UNK     0       1.442   1.212  -1.228  0.00  0.00    +0.000 C 
ATOM     10  N7  UNK     0       1.640   2.264  -2.172  0.00  0.00    +0.000 N 
ATOM     11  H41 UNK     0       0.929   3.021  -2.279  0.00  0.00    +0.000 HD
ATOM     12  H42 UNK     0       2.498   2.289  -2.766  0.00  0.00    +0.000 HD
ATOM     13  H1  UNL     1      -0.453   1.946  -0.548  0.00  0.00    +0.000 HD
ENDROOT
BRANCH   1  14
ATOM     14  C11 UNK     0      -2.268   0.482   1.536  0.00  0.00    +0.000 C 
ATOM     15  C13 UNK     0      -3.469  -0.296   0.941  0.00  0.00    +0.000 C 
ATOM     16  C12 UNK     0      -3.919   0.204  -0.446  0.00  0.00    +0.000 C 
ATOM     17  C14 UNK     0      -4.187   1.718  -0.396  0.00  0.00    +0.000 C 
ATOM     18  C18 UNK     0      -3.069   2.489   0.255  0.00  0.00    +0.000 C 
ATOM     19  C15 UNK     0      -2.249   1.947   1.170  0.00  0.00    +0.000 C 
BRANCH  16  20
ATOM     20  C17 UNK     0      -2.940  -0.168  -1.578  0.00  0.00    +0.000 C 
BRANCH  20  21
ATOM     21  O1  UNK     0      -2.683  -1.546  -1.594  0.00  0.00    +0.000 OA
ATOM     22  H40 UNK     0      -3.500  -1.983  -1.951  0.00  0.00    +0.000 HD
ENDBRANCH  20  21
ENDBRANCH  16  20
ENDBRANCH   1  14
BRANCH   5  23
ATOM     23  N2  UNK     0       3.417  -0.789   0.762  0.00  0.00    +0.000 NA
ATOM     24  H32 UNK     0       3.307  -1.548   1.478  0.00  0.00    +0.000 HD
BRANCH  23  25
ATOM     25  C8  UNK     0       4.696  -0.937   0.045  0.00  0.00    +0.000 C 
ATOM     26  C9  UNK     0       5.238  -2.357  -0.048  0.00  0.00    +0.000 C 
ATOM     27  C10 UNK     0       5.851  -1.369   0.937  0.00  0.00    +0.000 C 
ENDBRANCH  23  25
ENDBRANCH   5  23
TORSDOF 5
