REMARK  Name = C:\Users\Maximilian\Desktop\Conformers\converted_pdb\conformers_pdb\Lipid IVa_conf_20.pdb
REMARK  5 active torsions:
REMARK  status: ('A' for Active; 'I' for Inactive)
REMARK    1  A    between atoms: N3_1  and  C11_10
REMARK    2  A    between atoms: C16_5  and  N2_19
REMARK    3  A    between atoms: C12_12  and  C17_16
REMARK    4  A    between atoms: C17_16  and  O1_17
REMARK    5  A    between atoms: N2_19  and  C8_21
REMARK                            x       y       z     vdW  Elec       q    Type
REMARK                         _______ _______ _______ _____ _____    ______ ____
ROOT
ATOM      1  N3  UNK     0      -0.602   0.182   0.573  0.00  0.00    +0.000 N 
ATOM      2  N4  UNK     0       0.883   1.890   0.687  0.00  0.00    +0.000 NA
ATOM      3  N5  UNK     0       3.074  -0.603  -1.056  0.00  0.00    +0.000 NA
ATOM      4  N6  UNK     0       0.891  -1.445  -0.568  0.00  0.00    +0.000 N 
ATOM      5  C16 UNK     0       2.885   0.677  -0.339  0.00  0.00    +0.000 C 
ATOM      6  C19 UNK     0       0.578  -0.210   0.066  0.00  0.00    +0.000 A 
ATOM      7  C20 UNK     0       1.466   0.807   0.137  0.00  0.00    +0.000 A 
ATOM      8  C21 UNK     0      -0.386   1.472   0.931  0.00  0.00    +0.000 A 
ATOM      9  C22 UNK     0       2.198  -1.573  -1.152  0.00  0.00    +0.000 C 
ATOM     10  N7  UNK     0       2.539  -2.760  -1.863  0.00  0.00    +0.000 N 
ATOM     11  H41 UNK     0       1.854  -3.543  -1.944  0.00  0.00    +0.000 HD
ATOM     12  H42 UNK     0       3.483  -2.861  -2.299  0.00  0.00    +0.000 HD
ATOM     13  H1  UNL     1       0.190  -2.213  -0.652  0.00  0.00    +0.000 HD
ENDROOT
BRANCH   1  14
ATOM     14  C11 UNK     0      -1.872  -0.553   0.603  0.00  0.00    +0.000 C 
ATOM     15  C13 UNK     0      -2.752  -0.124  -0.584  0.00  0.00    +0.000 C 
ATOM     16  C12 UNK     0      -4.169  -0.703  -0.437  0.00  0.00    +0.000 C 
ATOM     17  C14 UNK     0      -4.816  -0.164   0.855  0.00  0.00    +0.000 C 
ATOM     18  C18 UNK     0      -3.900  -0.267   2.049  0.00  0.00    +0.000 C 
ATOM     19  C15 UNK     0      -2.565  -0.356   1.934  0.00  0.00    +0.000 C 
BRANCH  16  20
ATOM     20  C17 UNK     0      -5.024  -0.361  -1.667  0.00  0.00    +0.000 C 
BRANCH  20  21
ATOM     21  O1  UNK     0      -6.277  -0.980  -1.567  0.00  0.00    +0.000 OA
ATOM     22  H40 UNK     0      -6.794  -0.687  -2.361  0.00  0.00    +0.000 HD
ENDBRANCH  20  21
ENDBRANCH  16  20
ENDBRANCH   1  14
BRANCH   5  23
ATOM     23  N2  UNK     0       3.796   0.741   0.811  0.00  0.00    +0.000 NA
ATOM     24  H32 UNK     0       3.588   1.616   1.348  0.00  0.00    +0.000 HD
BRANCH  23  25
ATOM     25  C8  UNK     0       5.196   0.735   0.355  0.00  0.00    +0.000 C 
ATOM     26  C9  UNK     0       6.171   1.320   1.368  0.00  0.00    +0.000 C 
ATOM     27  C10 UNK     0       5.817   2.104   0.110  0.00  0.00    +0.000 C 
ENDBRANCH  23  25
ENDBRANCH   5  23
TORSDOF 5
