REMARK  Name = C:\Users\Maximilian\Desktop\Conformers\converted_pdb\conformers_pdb\Lipid IVa_conf_32.pdb
REMARK  5 active torsions:
REMARK  status: ('A' for Active; 'I' for Inactive)
REMARK    1  A    between atoms: N3_1  and  C11_10
REMARK    2  A    between atoms: C16_5  and  N2_19
REMARK    3  A    between atoms: C12_12  and  C17_16
REMARK    4  A    between atoms: C17_16  and  O1_17
REMARK    5  A    between atoms: N2_19  and  C8_21
REMARK                            x       y       z     vdW  Elec       q    Type
REMARK                         _______ _______ _______ _____ _____    ______ ____
ROOT
ATOM      1  N3  UNK     0      -0.231  -0.587  -0.394  0.00  0.00    +0.000 N 
ATOM      2  N4  UNK     0       1.413  -2.146  -0.293  0.00  0.00    +0.000 NA
ATOM      3  N5  UNK     0       2.849   0.311   2.170  0.00  0.00    +0.000 NA
ATOM      4  N6  UNK     0       0.752   0.998   1.249  0.00  0.00    +0.000 N 
ATOM      5  C16 UNK     0       2.934  -0.930   1.368  0.00  0.00    +0.000 C 
ATOM      6  C19 UNK     0       0.740  -0.169   0.433  0.00  0.00    +0.000 A 
ATOM      7  C20 UNK     0       1.727  -1.092   0.484  0.00  0.00    +0.000 A 
ATOM      8  C21 UNK     0       0.205  -1.804  -0.811  0.00  0.00    +0.000 A 
ATOM      9  C22 UNK     0       1.877   1.187   2.126  0.00  0.00    +0.000 C 
ATOM     10  N7  UNK     0       1.937   2.344   2.960  0.00  0.00    +0.000 N 
ATOM     11  H41 UNK     0       1.171   3.053   2.938  0.00  0.00    +0.000 HD
ATOM     12  H42 UNK     0       2.749   2.495   3.599  0.00  0.00    +0.000 HD
ATOM     13  H1  UNL     1      -0.031   1.687   1.233  0.00  0.00    +0.000 HD
ENDROOT
BRANCH   1  14
ATOM     14  C11 UNK     0      -1.536   0.035  -0.648  0.00  0.00    +0.000 C 
ATOM     15  C13 UNK     0      -2.617  -0.617   0.235  0.00  0.00    +0.000 C 
ATOM     16  C12 UNK     0      -4.060  -0.106  -0.077  0.00  0.00    +0.000 C 
ATOM     17  C14 UNK     0      -4.167   0.673  -1.420  0.00  0.00    +0.000 C 
ATOM     18  C18 UNK     0      -3.196   0.167  -2.453  0.00  0.00    +0.000 C 
ATOM     19  C15 UNK     0      -1.934  -0.100  -2.098  0.00  0.00    +0.000 C 
BRANCH  16  20
ATOM     20  C17 UNK     0      -5.066  -1.274  -0.029  0.00  0.00    +0.000 C 
BRANCH  20  21
ATOM     21  O1  UNK     0      -6.386  -0.804  -0.091  0.00  0.00    +0.000 OA
ATOM     22  H40 UNK     0      -6.595  -0.423   0.802  0.00  0.00    +0.000 HD
ENDBRANCH  20  21
ENDBRANCH  16  20
ENDBRANCH   1  14
BRANCH   5  23
ATOM     23  N2  UNK     0       4.189  -0.952   0.598  0.00  0.00    +0.000 NA
ATOM     24  H32 UNK     0       4.226  -1.840   0.045  0.00  0.00    +0.000 HD
BRANCH  23  25
ATOM     25  C8  UNK     0       4.271   0.168  -0.346  0.00  0.00    +0.000 C 
ATOM     26  C9  UNK     0       5.686   0.410  -0.842  0.00  0.00    +0.000 C 
ATOM     27  C10 UNK     0       5.064   1.355   0.173  0.00  0.00    +0.000 C 
ENDBRANCH  23  25
ENDBRANCH   5  23
TORSDOF 5
