REMARK  Name = C:\Users\Maximilian\Desktop\Conformers\converted_pdb\conformers_pdb\Lipid IVa_conf_61.pdb
REMARK  5 active torsions:
REMARK  status: ('A' for Active; 'I' for Inactive)
REMARK    1  A    between atoms: N3_1  and  C11_10
REMARK    2  A    between atoms: C16_5  and  N2_19
REMARK    3  A    between atoms: C12_12  and  C17_16
REMARK    4  A    between atoms: C17_16  and  O1_17
REMARK    5  A    between atoms: N2_19  and  C8_21
REMARK                            x       y       z     vdW  Elec       q    Type
REMARK                         _______ _______ _______ _____ _____    ______ ____
ROOT
ATOM      1  N3  UNK     0      -0.415  -0.965   0.980  0.00  0.00    +0.000 N 
ATOM      2  N4  UNK     0       1.681  -1.818   0.996  0.00  0.00    +0.000 NA
ATOM      3  N5  UNK     0       2.204   0.841  -1.600  0.00  0.00    +0.000 NA
ATOM      4  N6  UNK     0      -0.010   0.817  -0.704  0.00  0.00    +0.000 N 
ATOM      5  C16 UNK     0       2.736  -0.179  -0.667  0.00  0.00    +0.000 C 
ATOM      6  C19 UNK     0       0.373  -0.243   0.165  0.00  0.00    +0.000 A 
ATOM      7  C20 UNK     0       1.628  -0.750   0.175  0.00  0.00    +0.000 A 
ATOM      8  C21 UNK     0       0.413  -1.918   1.470  0.00  0.00    +0.000 A 
ATOM      9  C22 UNK     0       0.983   1.314  -1.616  0.00  0.00    +0.000 C 
ATOM     10  N7  UNK     0       0.630   2.315  -2.570  0.00  0.00    +0.000 N 
ATOM     11  H41 UNK     0       1.339   2.678  -3.245  0.00  0.00    +0.000 HD
ATOM     12  H42 UNK     0      -0.342   2.694  -2.603  0.00  0.00    +0.000 HD
ATOM     13  H1  UNL     1      -0.985   1.188  -0.720  0.00  0.00    +0.000 HD
ENDROOT
BRANCH   1  14
ATOM     14  C11 UNK     0      -1.857  -0.846   1.226  0.00  0.00    +0.000 C 
ATOM     15  C13 UNK     0      -2.666  -1.289  -0.023  0.00  0.00    +0.000 C 
ATOM     16  C12 UNK     0      -4.117  -0.710  -0.101  0.00  0.00    +0.000 C 
ATOM     17  C14 UNK     0      -4.552  -0.032   1.219  0.00  0.00    +0.000 C 
ATOM     18  C18 UNK     0      -3.496   0.930   1.685  0.00  0.00    +0.000 C 
ATOM     19  C15 UNK     0      -2.214   0.553   1.668  0.00  0.00    +0.000 C 
BRANCH  16  20
ATOM     20  C17 UNK     0      -4.272   0.266  -1.284  0.00  0.00    +0.000 C 
BRANCH  20  21
ATOM     21  O1  UNK     0      -4.070  -0.412  -2.494  0.00  0.00    +0.000 OA
ATOM     22  H40 UNK     0      -4.153   0.270  -3.210  0.00  0.00    +0.000 HD
ENDBRANCH  20  21
ENDBRANCH  16  20
ENDBRANCH   1  14
BRANCH   5  23
ATOM     23  N2  UNK     0       3.755   0.437   0.198  0.00  0.00    +0.000 NA
ATOM     24  H32 UNK     0       4.284   1.147  -0.364  0.00  0.00    +0.000 HD
BRANCH  23  25
ATOM     25  C8  UNK     0       4.672  -0.586   0.731  0.00  0.00    +0.000 C 
ATOM     26  C9  UNK     0       6.019  -0.031   1.173  0.00  0.00    +0.000 C 
ATOM     27  C10 UNK     0       5.916  -0.852  -0.105  0.00  0.00    +0.000 C 
ENDBRANCH  23  25
ENDBRANCH   5  23
TORSDOF 5
