REMARK  Name = C:\Users\Maximilian\Desktop\Conformers\converted_pdb\conformers_pdb\Lipid IVa_conf_30.pdb
REMARK  5 active torsions:
REMARK  status: ('A' for Active; 'I' for Inactive)
REMARK    1  A    between atoms: N3_1  and  C11_10
REMARK    2  A    between atoms: C16_5  and  N2_19
REMARK    3  A    between atoms: C12_12  and  C17_16
REMARK    4  A    between atoms: C17_16  and  O1_17
REMARK    5  A    between atoms: N2_19  and  C8_21
REMARK                            x       y       z     vdW  Elec       q    Type
REMARK                         _______ _______ _______ _____ _____    ______ ____
ROOT
ATOM      1  N3  UNK     0      -0.640   0.444   0.490  0.00  0.00    +0.000 N 
ATOM      2  N4  UNK     0       1.033   1.884  -0.025  0.00  0.00    +0.000 NA
ATOM      3  N5  UNK     0       2.936  -1.323  -0.458  0.00  0.00    +0.000 NA
ATOM      4  N6  UNK     0       0.659  -1.652   0.187  0.00  0.00    +0.000 N 
ATOM      5  C16 UNK     0       2.877   0.156  -0.405  0.00  0.00    +0.000 C 
ATOM      6  C19 UNK     0       0.493  -0.240   0.260  0.00  0.00    +0.000 A 
ATOM      7  C20 UNK     0       1.496   0.619  -0.034  0.00  0.00    +0.000 A 
ATOM      8  C21 UNK     0      -0.277   1.738   0.296  0.00  0.00    +0.000 A 
ATOM      9  C22 UNK     0       1.954  -2.148  -0.192  0.00  0.00    +0.000 C 
ATOM     10  N7  UNK     0       2.173  -3.554  -0.289  0.00  0.00    +0.000 N 
ATOM     11  H41 UNK     0       1.401  -4.225  -0.082  0.00  0.00    +0.000 HD
ATOM     12  H42 UNK     0       3.108  -3.927  -0.566  0.00  0.00    +0.000 HD
ATOM     13  H1  UNL     1      -0.130  -2.309   0.374  0.00  0.00    +0.000 HD
ENDROOT
BRANCH   1  14
ATOM     14  C11 UNK     0      -1.991  -0.087   0.708  0.00  0.00    +0.000 C 
ATOM     15  C13 UNK     0      -2.777  -0.099  -0.616  0.00  0.00    +0.000 C 
ATOM     16  C12 UNK     0      -4.259  -0.558  -0.442  0.00  0.00    +0.000 C 
ATOM     17  C14 UNK     0      -4.761  -0.498   1.031  0.00  0.00    +0.000 C 
ATOM     18  C18 UNK     0      -4.071   0.572   1.835  0.00  0.00    +0.000 C 
ATOM     19  C15 UNK     0      -2.749   0.738   1.719  0.00  0.00    +0.000 C 
BRANCH  16  20
ATOM     20  C17 UNK     0      -5.200   0.234  -1.371  0.00  0.00    +0.000 C 
BRANCH  20  21
ATOM     21  O1  UNK     0      -4.856   0.024  -2.716  0.00  0.00    +0.000 OA
ATOM     22  H40 UNK     0      -4.224   0.745  -2.971  0.00  0.00    +0.000 HD
ENDBRANCH  20  21
ENDBRANCH  16  20
ENDBRANCH   1  14
BRANCH   5  23
ATOM     23  N2  UNK     0       3.850   0.657   0.575  0.00  0.00    +0.000 NA
ATOM     24  H32 UNK     0       3.718   1.692   0.676  0.00  0.00    +0.000 HD
BRANCH  23  25
ATOM     25  C8  UNK     0       5.220   0.353   0.125  0.00  0.00    +0.000 C 
ATOM     26  C9  UNK     0       6.284   1.234   0.764  0.00  0.00    +0.000 C 
ATOM     27  C10 UNK     0       5.901   1.440  -0.695  0.00  0.00    +0.000 C 
ENDBRANCH  23  25
ENDBRANCH   5  23
TORSDOF 5
