REMARK  Name = C:\Users\Maximilian\Desktop\Conformers\converted_pdb\conformers_pdb\Luteolin_conf_3.pdb
REMARK  11 active torsions:
REMARK  status: ('A' for Active; 'I' for Inactive)
REMARK    1  A    between atoms: C18_3  and  O2_12
REMARK    2  A    between atoms: C23_8  and  O8_28
REMARK    3  A    between atoms: C25_10  and  C27_30
REMARK    4  A    between atoms: O2_12  and  C16_13
REMARK    5  A    between atoms: C14_14  and  O5_19
REMARK    6  A    between atoms: C12_15  and  O3_21
REMARK    7  A    between atoms: C13_16  and  O4_23
REMARK    8  A    between atoms: C15_17  and  C17_25
REMARK    9  A    between atoms: C17_25  and  O6_26
REMARK   10  A    between atoms: C30_32  and  O10_36
REMARK   11  A    between atoms: C32_33  and  O11_38
REMARK                            x       y       z     vdW  Elec       q    Type
REMARK                         _______ _______ _______ _____ _____    ______ ____
ROOT
ATOM      1  O7  UNK     0       2.317   0.518   0.112  0.00  0.00    +0.000 OA
ATOM      2  O9  UNK     0       2.526   4.273   1.471  0.00  0.00    +0.000 OA
ATOM      3  C18 UNK     0      -1.165   1.380  -0.440  0.00  0.00    +0.000 A 
ATOM      4  C19 UNK     0       0.033   0.653  -0.392  0.00  0.00    +0.000 A 
ATOM      5  C20 UNK     0      -1.156   2.728  -0.078  0.00  0.00    +0.000 A 
ATOM      6  C21 UNK     0       1.211   1.252   0.061  0.00  0.00    +0.000 A 
ATOM      7  C22 UNK     0       1.221   2.613   0.463  0.00  0.00    +0.000 A 
ATOM      8  C23 UNK     0       0.017   3.365   0.344  0.00  0.00    +0.000 A 
ATOM      9  C24 UNK     0       2.436   3.114   0.988  0.00  0.00    +0.000 A 
ATOM     10  C25 UNK     0       3.484   0.980   0.549  0.00  0.00    +0.000 A 
ATOM     11  C26 UNK     0       3.569   2.300   1.015  0.00  0.00    +0.000 A 
ENDROOT
BRANCH  10  12
ATOM     12  C27 UNK     0       4.657   0.070   0.552  0.00  0.00    +0.000 A 
ATOM     13  C28 UNK     0       4.455  -1.319   0.628  0.00  0.00    +0.000 A 
ATOM     14  C30 UNK     0       5.540  -2.203   0.624  0.00  0.00    +0.000 A 
ATOM     15  C32 UNK     0       6.849  -1.703   0.535  0.00  0.00    +0.000 A 
ATOM     16  C31 UNK     0       7.058  -0.321   0.446  0.00  0.00    +0.000 A 
ATOM     17  C29 UNK     0       5.974   0.560   0.451  0.00  0.00    +0.000 A 
BRANCH  14  18
ATOM     18  O10 UNK     0       5.297  -3.574   0.710  0.00  0.00    +0.000 OA
ATOM     19  H51 UNK     0       6.048  -4.254   0.712  0.00  0.00    +0.000 HD
ENDBRANCH  14  18
BRANCH  15  20
ATOM     20  O11 UNK     0       7.934  -2.578   0.532  0.00  0.00    +0.000 OA
ATOM     21  H52 UNK     0       8.888  -2.241   0.468  0.00  0.00    +0.000 HD
ENDBRANCH  15  20
ENDBRANCH  10  12
BRANCH   8  22
ATOM     22  O8  UNK     0      -0.076   4.736   0.602  0.00  0.00    +0.000 OA
ATOM     23  H47 UNK     0       0.709   5.368   0.649  0.00  0.00    +0.000 HD
ENDBRANCH   8  22
BRANCH   3  24
ATOM     24  O2  UNK     0      -2.382   0.822  -0.861  0.00  0.00    +0.000 OA
BRANCH  24  25
ATOM     25  C16 UNK     0      -2.674  -0.573  -0.999  0.00  0.00    +0.000 C 
ATOM     26  C14 UNK     0      -2.783  -1.262   0.390  0.00  0.00    +0.000 C 
ATOM     27  C12 UNK     0      -3.914  -2.294   0.378  0.00  0.00    +0.000 C 
ATOM     28  C13 UNK     0      -5.236  -1.589   0.051  0.00  0.00    +0.000 C 
ATOM     29  C15 UNK     0      -5.064  -0.573  -1.119  0.00  0.00    +0.000 C 
ATOM     30  O1  UNK     0      -3.832  -0.734  -1.812  0.00  0.00    +0.000 OA
BRANCH  26  31
ATOM     31  O5  UNK     0      -1.574  -1.909   0.703  0.00  0.00    +0.000 OA
ATOM     32  H42 UNK     0      -1.094  -1.339   1.360  0.00  0.00    +0.000 HD
ENDBRANCH  26  31
BRANCH  27  33
ATOM     33  O3  UNK     0      -4.020  -2.915   1.633  0.00  0.00    +0.000 OA
ATOM     34  H40 UNK     0      -3.339  -3.637   1.658  0.00  0.00    +0.000 HD
ENDBRANCH  27  33
BRANCH  28  35
ATOM     35  O4  UNK     0      -6.195  -2.560  -0.281  0.00  0.00    +0.000 OA
ATOM     36  H41 UNK     0      -7.084  -2.124  -0.200  0.00  0.00    +0.000 HD
ENDBRANCH  28  35
BRANCH  29  37
ATOM     37  C17 UNK     0      -5.301   0.889  -0.683  0.00  0.00    +0.000 C 
BRANCH  37  38
ATOM     38  O6  UNK     0      -6.642   1.084  -0.319  0.00  0.00    +0.000 OA
ATOM     39  H43 UNK     0      -7.160   1.153  -1.163  0.00  0.00    +0.000 HD
ENDBRANCH  37  38
ENDBRANCH  29  37
ENDBRANCH  24  25
ENDBRANCH   3  24
TORSDOF 11
