REMARK  Name = C:\Users\Maximilian\Desktop\Conformers\converted_pdb\conformers_pdb\Luteolin_conf_2.pdb
REMARK  11 active torsions:
REMARK  status: ('A' for Active; 'I' for Inactive)
REMARK    1  A    between atoms: C18_3  and  O2_12
REMARK    2  A    between atoms: C23_8  and  O8_28
REMARK    3  A    between atoms: C25_10  and  C27_30
REMARK    4  A    between atoms: O2_12  and  C16_13
REMARK    5  A    between atoms: C14_14  and  O5_19
REMARK    6  A    between atoms: C12_15  and  O3_21
REMARK    7  A    between atoms: C13_16  and  O4_23
REMARK    8  A    between atoms: C15_17  and  C17_25
REMARK    9  A    between atoms: C17_25  and  O6_26
REMARK   10  A    between atoms: C30_32  and  O10_36
REMARK   11  A    between atoms: C32_33  and  O11_38
REMARK                            x       y       z     vdW  Elec       q    Type
REMARK                         _______ _______ _______ _____ _____    ______ ____
ROOT
ATOM      1  O7  UNK     0       2.187   0.544   0.245  0.00  0.00    +0.000 OA
ATOM      2  O9  UNK     0       2.355   4.356  -0.973  0.00  0.00    +0.000 OA
ATOM      3  C18 UNK     0      -1.352   1.316   0.568  0.00  0.00    +0.000 A 
ATOM      4  C19 UNK     0      -0.136   0.613   0.599  0.00  0.00    +0.000 A 
ATOM      5  C20 UNK     0      -1.361   2.649   0.147  0.00  0.00    +0.000 A 
ATOM      6  C21 UNK     0       1.053   1.235   0.210  0.00  0.00    +0.000 A 
ATOM      7  C22 UNK     0       1.046   2.584  -0.217  0.00  0.00    +0.000 A 
ATOM      8  C23 UNK     0      -0.178   3.291  -0.245  0.00  0.00    +0.000 A 
ATOM      9  C24 UNK     0       2.278   3.157  -0.592  0.00  0.00    +0.000 A 
ATOM     10  C25 UNK     0       3.365   1.051  -0.111  0.00  0.00    +0.000 A 
ATOM     11  C26 UNK     0       3.440   2.388  -0.537  0.00  0.00    +0.000 A 
ENDROOT
BRANCH  10  12
ATOM     12  C27 UNK     0       4.569   0.186  -0.030  0.00  0.00    +0.000 A 
ATOM     13  C28 UNK     0       4.589  -0.887   0.879  0.00  0.00    +0.000 A 
ATOM     14  C30 UNK     0       5.705  -1.727   0.973  0.00  0.00    +0.000 A 
ATOM     15  C32 UNK     0       6.818  -1.506   0.145  0.00  0.00    +0.000 A 
ATOM     16  C31 UNK     0       6.800  -0.448  -0.772  0.00  0.00    +0.000 A 
ATOM     17  C29 UNK     0       5.685   0.390  -0.863  0.00  0.00    +0.000 A 
BRANCH  14  18
ATOM     18  O10 UNK     0       5.689  -2.775   1.893  0.00  0.00    +0.000 OA
ATOM     19  H51 UNK     0       6.471  -3.410   2.000  0.00  0.00    +0.000 HD
ENDBRANCH  14  18
BRANCH  15  20
ATOM     20  O11 UNK     0       7.933  -2.338   0.234  0.00  0.00    +0.000 OA
ATOM     21  H52 UNK     0       8.747  -2.198  -0.352  0.00  0.00    +0.000 HD
ENDBRANCH  15  20
ENDBRANCH  10  12
BRANCH   8  22
ATOM     22  O8  UNK     0      -0.227   4.622  -0.661  0.00  0.00    +0.000 OA
ATOM     23  H47 UNK     0      -1.098   5.140  -0.687  0.00  0.00    +0.000 HD
ENDBRANCH   8  22
BRANCH   3  24
ATOM     24  O2  UNK     0      -2.575   0.732   0.936  0.00  0.00    +0.000 OA
BRANCH  24  25
ATOM     25  C16 UNK     0      -2.744  -0.623   1.359  0.00  0.00    +0.000 C 
ATOM     26  C14 UNK     0      -4.158  -0.843   1.921  0.00  0.00    +0.000 C 
ATOM     27  C12 UNK     0      -5.207  -0.808   0.801  0.00  0.00    +0.000 C 
ATOM     28  C13 UNK     0      -4.800  -1.749  -0.350  0.00  0.00    +0.000 C 
ATOM     29  C15 UNK     0      -3.321  -1.551  -0.770  0.00  0.00    +0.000 C 
ATOM     30  O1  UNK     0      -2.413  -1.544   0.327  0.00  0.00    +0.000 OA
BRANCH  26  31
ATOM     31  O5  UNK     0      -4.198  -2.079   2.588  0.00  0.00    +0.000 OA
ATOM     32  H42 UNK     0      -4.998  -2.064   3.176  0.00  0.00    +0.000 HD
ENDBRANCH  26  31
BRANCH  27  33
ATOM     33  O3  UNK     0      -5.361   0.510   0.339  0.00  0.00    +0.000 OA
ATOM     34  H40 UNK     0      -6.204   0.536  -0.185  0.00  0.00    +0.000 HD
ENDBRANCH  27  33
BRANCH  28  35
ATOM     35  O4  UNK     0      -4.979  -3.086   0.047  0.00  0.00    +0.000 OA
ATOM     36  H41 UNK     0      -5.955  -3.269   0.018  0.00  0.00    +0.000 HD
ENDBRANCH  28  35
BRANCH  29  37
ATOM     37  C17 UNK     0      -3.094  -0.368  -1.737  0.00  0.00    +0.000 C 
BRANCH  37  38
ATOM     38  O6  UNK     0      -3.708  -0.614  -2.974  0.00  0.00    +0.000 OA
ATOM     39  H43 UNK     0      -3.116  -1.240  -3.468  0.00  0.00    +0.000 HD
ENDBRANCH  37  38
ENDBRANCH  29  37
ENDBRANCH  24  25
ENDBRANCH   3  24
TORSDOF 11
