REMARK  Name = C:\Users\Maximilian\Desktop\Conformers\converted_pdb\conformers_pdb\Luteolin_conf_22.pdb
REMARK  11 active torsions:
REMARK  status: ('A' for Active; 'I' for Inactive)
REMARK    1  A    between atoms: C18_3  and  O2_12
REMARK    2  A    between atoms: C23_8  and  O8_28
REMARK    3  A    between atoms: C25_10  and  C27_30
REMARK    4  A    between atoms: O2_12  and  C16_13
REMARK    5  A    between atoms: C14_14  and  O5_19
REMARK    6  A    between atoms: C12_15  and  O3_21
REMARK    7  A    between atoms: C13_16  and  O4_23
REMARK    8  A    between atoms: C15_17  and  C17_25
REMARK    9  A    between atoms: C17_25  and  O6_26
REMARK   10  A    between atoms: C30_32  and  O10_36
REMARK   11  A    between atoms: C32_33  and  O11_38
REMARK                            x       y       z     vdW  Elec       q    Type
REMARK                         _______ _______ _______ _____ _____    ______ ____
ROOT
ATOM      1  O7  UNK     0       2.385   0.064  -0.353  0.00  0.00    +0.000 OA
ATOM      2  O9  UNK     0       2.447   0.059  -4.352  0.00  0.00    +0.000 OA
ATOM      3  C18 UNK     0      -1.135   0.773  -0.834  0.00  0.00    +0.000 A 
ATOM      4  C19 UNK     0       0.095   0.534  -0.224  0.00  0.00    +0.000 A 
ATOM      5  C20 UNK     0      -1.222   0.733  -2.235  0.00  0.00    +0.000 A 
ATOM      6  C21 UNK     0       1.235   0.272  -0.985  0.00  0.00    +0.000 A 
ATOM      7  C22 UNK     0       1.165   0.238  -2.402  0.00  0.00    +0.000 A 
ATOM      8  C23 UNK     0      -0.103   0.439  -3.024  0.00  0.00    +0.000 A 
ATOM      9  C24 UNK     0       2.381   0.030  -3.096  0.00  0.00    +0.000 A 
ATOM     10  C25 UNK     0       3.534  -0.165  -0.980  0.00  0.00    +0.000 A 
ATOM     11  C26 UNK     0       3.559  -0.189  -2.381  0.00  0.00    +0.000 A 
ENDROOT
BRANCH  10  12
ATOM     12  C27 UNK     0       4.756  -0.395  -0.169  0.00  0.00    +0.000 A 
ATOM     13  C28 UNK     0       6.039  -0.072  -0.652  0.00  0.00    +0.000 A 
ATOM     14  C30 UNK     0       7.177  -0.290   0.139  0.00  0.00    +0.000 A 
ATOM     15  C32 UNK     0       7.039  -0.830   1.428  0.00  0.00    +0.000 A 
ATOM     16  C31 UNK     0       5.767  -1.140   1.917  0.00  0.00    +0.000 A 
ATOM     17  C29 UNK     0       4.634  -0.921   1.129  0.00  0.00    +0.000 A 
BRANCH  14  18
ATOM     18  O10 UNK     0       8.442   0.031  -0.350  0.00  0.00    +0.000 OA
ATOM     19  H51 UNK     0       8.570   0.423  -1.276  0.00  0.00    +0.000 HD
ENDBRANCH  14  18
BRANCH  15  20
ATOM     20  O11 UNK     0       8.151  -1.062   2.237  0.00  0.00    +0.000 OA
ATOM     21  H52 UNK     0       9.093  -0.854   1.928  0.00  0.00    +0.000 HD
ENDBRANCH  15  20
ENDBRANCH  10  12
BRANCH   8  22
ATOM     22  O8  UNK     0      -0.324   0.340  -4.401  0.00  0.00    +0.000 OA
ATOM     23  H47 UNK     0       0.299  -0.105  -5.058  0.00  0.00    +0.000 HD
ENDBRANCH   8  22
BRANCH   3  24
ATOM     24  O2  UNK     0      -2.237   1.046  -0.006  0.00  0.00    +0.000 OA
BRANCH  24  25
ATOM     25  C16 UNK     0      -3.604   1.130  -0.421  0.00  0.00    +0.000 C 
ATOM     26  C14 UNK     0      -4.155  -0.267  -0.795  0.00  0.00    +0.000 C 
ATOM     27  C12 UNK     0      -4.115  -1.211   0.428  0.00  0.00    +0.000 C 
ATOM     28  C13 UNK     0      -4.180  -0.431   1.761  0.00  0.00    +0.000 C 
ATOM     29  C15 UNK     0      -4.941   0.909   1.573  0.00  0.00    +0.000 C 
ATOM     30  O1  UNK     0      -4.354   1.774   0.601  0.00  0.00    +0.000 OA
BRANCH  26  31
ATOM     31  O5  UNK     0      -5.480  -0.145  -1.249  0.00  0.00    +0.000 OA
ATOM     32  H42 UNK     0      -5.437   0.247  -2.161  0.00  0.00    +0.000 HD
ENDBRANCH  26  31
BRANCH  27  33
ATOM     33  O3  UNK     0      -2.937  -1.977   0.410  0.00  0.00    +0.000 OA
ATOM     34  H40 UNK     0      -3.064  -2.687  -0.273  0.00  0.00    +0.000 HD
ENDBRANCH  27  33
BRANCH  28  35
ATOM     35  O4  UNK     0      -4.817  -1.220   2.734  0.00  0.00    +0.000 OA
ATOM     36  H41 UNK     0      -4.166  -1.918   3.007  0.00  0.00    +0.000 HD
ENDBRANCH  28  35
BRANCH  29  37
ATOM     37  C17 UNK     0      -5.033   1.692   2.895  0.00  0.00    +0.000 C 
BRANCH  37  38
ATOM     38  O6  UNK     0      -5.858   1.039   3.822  0.00  0.00    +0.000 OA
ATOM     39  H43 UNK     0      -6.793   1.184   3.523  0.00  0.00    +0.000 HD
ENDBRANCH  37  38
ENDBRANCH  29  37
ENDBRANCH  24  25
ENDBRANCH   3  24
TORSDOF 11
