REMARK  Name = C:\Users\Maximilian\Desktop\Conformers\converted_pdb\conformers_pdb\Luteolin_conf_18.pdb
REMARK  11 active torsions:
REMARK  status: ('A' for Active; 'I' for Inactive)
REMARK    1  A    between atoms: C18_3  and  O2_12
REMARK    2  A    between atoms: C23_8  and  O8_28
REMARK    3  A    between atoms: C25_10  and  C27_30
REMARK    4  A    between atoms: O2_12  and  C16_13
REMARK    5  A    between atoms: C14_14  and  O5_19
REMARK    6  A    between atoms: C12_15  and  O3_21
REMARK    7  A    between atoms: C13_16  and  O4_23
REMARK    8  A    between atoms: C15_17  and  C17_25
REMARK    9  A    between atoms: C17_25  and  O6_26
REMARK   10  A    between atoms: C30_32  and  O10_36
REMARK   11  A    between atoms: C32_33  and  O11_38
REMARK                            x       y       z     vdW  Elec       q    Type
REMARK                         _______ _______ _______ _____ _____    ______ ____
ROOT
ATOM      1  O7  UNK     0       2.123  -0.070   0.554  0.00  0.00    +0.000 OA
ATOM      2  O9  UNK     0       2.336  -0.897   4.461  0.00  0.00    +0.000 OA
ATOM      3  C18 UNK     0      -1.273  -1.296   0.921  0.00  0.00    +0.000 A 
ATOM      4  C19 UNK     0      -0.101  -0.776   0.353  0.00  0.00    +0.000 A 
ATOM      5  C20 UNK     0      -1.305  -1.565   2.289  0.00  0.00    +0.000 A 
ATOM      6  C21 UNK     0       1.030  -0.549   1.140  0.00  0.00    +0.000 A 
ATOM      7  C22 UNK     0       1.012  -0.830   2.532  0.00  0.00    +0.000 A 
ATOM      8  C23 UNK     0      -0.199  -1.318   3.110  0.00  0.00    +0.000 A 
ATOM      9  C24 UNK     0       2.220  -0.620   3.239  0.00  0.00    +0.000 A 
ATOM     10  C25 UNK     0       3.261   0.159   1.200  0.00  0.00    +0.000 A 
ATOM     11  C26 UNK     0       3.336  -0.112   2.573  0.00  0.00    +0.000 A 
ENDROOT
BRANCH  10  12
ATOM     12  C27 UNK     0       4.415   0.706   0.441  0.00  0.00    +0.000 A 
ATOM     13  C28 UNK     0       4.182   1.455  -0.727  0.00  0.00    +0.000 A 
ATOM     14  C30 UNK     0       5.251   1.982  -1.465  0.00  0.00    +0.000 A 
ATOM     15  C32 UNK     0       6.567   1.756  -1.046  0.00  0.00    +0.000 A 
ATOM     16  C31 UNK     0       6.810   0.999   0.106  0.00  0.00    +0.000 A 
ATOM     17  C29 UNK     0       5.745   0.474   0.843  0.00  0.00    +0.000 A 
BRANCH  14  18
ATOM     18  O10 UNK     0       5.012   2.732  -2.615  0.00  0.00    +0.000 OA
ATOM     19  H51 UNK     0       4.071   2.912  -2.943  0.00  0.00    +0.000 HD
ENDBRANCH  14  18
BRANCH  15  20
ATOM     20  O11 UNK     0       7.627   2.283  -1.781  0.00  0.00    +0.000 OA
ATOM     21  H52 UNK     0       8.590   2.136  -1.502  0.00  0.00    +0.000 HD
ENDBRANCH  15  20
ENDBRANCH  10  12
BRANCH   8  22
ATOM     22  O8  UNK     0      -0.377  -1.557   4.476  0.00  0.00    +0.000 OA
ATOM     23  H47 UNK     0       0.229  -1.225   5.211  0.00  0.00    +0.000 HD
ENDBRANCH   8  22
BRANCH   3  24
ATOM     24  O2  UNK     0      -2.433  -1.543   0.169  0.00  0.00    +0.000 OA
BRANCH  24  25
ATOM     25  C16 UNK     0      -2.557  -1.340  -1.243  0.00  0.00    +0.000 C 
ATOM     26  C14 UNK     0      -3.859  -1.995  -1.768  0.00  0.00    +0.000 C 
ATOM     27  C12 UNK     0      -5.055  -1.015  -1.730  0.00  0.00    +0.000 C 
ATOM     28  C13 UNK     0      -4.835   0.076  -0.672  0.00  0.00    +0.000 C 
ATOM     29  C15 UNK     0      -3.524   0.837  -1.003  0.00  0.00    +0.000 C 
ATOM     30  O1  UNK     0      -2.484   0.040  -1.572  0.00  0.00    +0.000 OA
BRANCH  26  31
ATOM     31  O5  UNK     0      -3.675  -2.435  -3.091  0.00  0.00    +0.000 OA
ATOM     32  H42 UNK     0      -3.166  -3.287  -3.046  0.00  0.00    +0.000 HD
ENDBRANCH  26  31
BRANCH  27  33
ATOM     33  O3  UNK     0      -6.262  -1.705  -1.512  0.00  0.00    +0.000 OA
ATOM     34  H40 UNK     0      -6.229  -2.087  -0.595  0.00  0.00    +0.000 HD
ENDBRANCH  27  33
BRANCH  28  35
ATOM     35  O4  UNK     0      -5.912   0.980  -0.677  0.00  0.00    +0.000 OA
ATOM     36  H41 UNK     0      -6.628   0.584  -0.114  0.00  0.00    +0.000 HD
ENDBRANCH  28  35
BRANCH  29  37
ATOM     37  C17 UNK     0      -3.005   1.624   0.214  0.00  0.00    +0.000 C 
BRANCH  37  38
ATOM     38  O6  UNK     0      -1.796   2.265  -0.090  0.00  0.00    +0.000 OA
ATOM     39  H43 UNK     0      -2.022   3.038  -0.672  0.00  0.00    +0.000 HD
ENDBRANCH  37  38
ENDBRANCH  29  37
ENDBRANCH  24  25
ENDBRANCH   3  24
TORSDOF 11
