REMARK  Name = C:\Users\Maximilian\Desktop\Conformers\converted_pdb\conformers_pdb\Luteolin_conf_20.pdb
REMARK  11 active torsions:
REMARK  status: ('A' for Active; 'I' for Inactive)
REMARK    1  A    between atoms: C18_3  and  O2_12
REMARK    2  A    between atoms: C23_8  and  O8_28
REMARK    3  A    between atoms: C25_10  and  C27_30
REMARK    4  A    between atoms: O2_12  and  C16_13
REMARK    5  A    between atoms: C14_14  and  O5_19
REMARK    6  A    between atoms: C12_15  and  O3_21
REMARK    7  A    between atoms: C13_16  and  O4_23
REMARK    8  A    between atoms: C15_17  and  C17_25
REMARK    9  A    between atoms: C17_25  and  O6_26
REMARK   10  A    between atoms: C30_32  and  O10_36
REMARK   11  A    between atoms: C32_33  and  O11_38
REMARK                            x       y       z     vdW  Elec       q    Type
REMARK                         _______ _______ _______ _____ _____    ______ ____
ROOT
ATOM      1  O7  UNK     0       2.432   0.032  -0.288  0.00  0.00    +0.000 OA
ATOM      2  O9  UNK     0       2.934  -3.416   1.675  0.00  0.00    +0.000 OA
ATOM      3  C18 UNK     0      -1.021  -1.060  -0.436  0.00  0.00    +0.000 A 
ATOM      4  C19 UNK     0       0.131  -0.292  -0.595  0.00  0.00    +0.000 A 
ATOM      5  C20 UNK     0      -0.919  -2.331   0.152  0.00  0.00    +0.000 A 
ATOM      6  C21 UNK     0       1.367  -0.749  -0.135  0.00  0.00    +0.000 A 
ATOM      7  C22 UNK     0       1.479  -2.017   0.492  0.00  0.00    +0.000 A 
ATOM      8  C23 UNK     0       0.313  -2.831   0.590  0.00  0.00    +0.000 A 
ATOM      9  C24 UNK     0       2.750  -2.365   1.008  0.00  0.00    +0.000 A 
ATOM     10  C25 UNK     0       3.648  -0.296   0.136  0.00  0.00    +0.000 A 
ATOM     11  C26 UNK     0       3.835  -1.509   0.813  0.00  0.00    +0.000 A 
ENDROOT
BRANCH  10  12
ATOM     12  C27 UNK     0       4.767   0.651  -0.100  0.00  0.00    +0.000 A 
ATOM     13  C28 UNK     0       6.099   0.208  -0.218  0.00  0.00    +0.000 A 
ATOM     14  C30 UNK     0       7.138   1.122  -0.451  0.00  0.00    +0.000 A 
ATOM     15  C32 UNK     0       6.849   2.491  -0.575  0.00  0.00    +0.000 A 
ATOM     16  C31 UNK     0       5.528   2.933  -0.472  0.00  0.00    +0.000 A 
ATOM     17  C29 UNK     0       4.494   2.022  -0.242  0.00  0.00    +0.000 A 
BRANCH  14  18
ATOM     18  O10 UNK     0       8.453   0.674  -0.564  0.00  0.00    +0.000 OA
ATOM     19  H51 UNK     0       8.688  -0.308  -0.479  0.00  0.00    +0.000 HD
ENDBRANCH  14  18
BRANCH  15  20
ATOM     20  O11 UNK     0       7.860   3.424  -0.803  0.00  0.00    +0.000 OA
ATOM     21  H52 UNK     0       8.833   3.154  -0.886  0.00  0.00    +0.000 HD
ENDBRANCH  15  20
ENDBRANCH  10  12
BRANCH   8  22
ATOM     22  O8  UNK     0       0.317  -4.141   1.079  0.00  0.00    +0.000 OA
ATOM     23  H47 UNK     0       1.138  -4.719   1.169  0.00  0.00    +0.000 HD
ENDBRANCH   8  22
BRANCH   3  24
ATOM     24  O2  UNK     0      -2.235  -0.525  -0.897  0.00  0.00    +0.000 OA
BRANCH  24  25
ATOM     25  C16 UNK     0      -3.546  -1.006  -0.583  0.00  0.00    +0.000 C 
ATOM     26  C14 UNK     0      -3.891  -0.758   0.912  0.00  0.00    +0.000 C 
ATOM     27  C12 UNK     0      -5.356  -0.328   1.054  0.00  0.00    +0.000 C 
ATOM     28  C13 UNK     0      -5.578   0.958   0.241  0.00  0.00    +0.000 C 
ATOM     29  C15 UNK     0      -4.899   0.880  -1.162  0.00  0.00    +0.000 C 
ATOM     30  O1  UNK     0      -4.486  -0.442  -1.492  0.00  0.00    +0.000 OA
BRANCH  26  31
ATOM     31  O5  UNK     0      -3.668  -1.934   1.650  0.00  0.00    +0.000 OA
ATOM     32  H42 UNK     0      -3.449  -1.659   2.579  0.00  0.00    +0.000 HD
ENDBRANCH  26  31
BRANCH  27  33
ATOM     33  O3  UNK     0      -5.666  -0.080   2.402  0.00  0.00    +0.000 OA
ATOM     34  H40 UNK     0      -5.905  -0.954   2.809  0.00  0.00    +0.000 HD
ENDBRANCH  27  33
BRANCH  28  35
ATOM     35  O4  UNK     0      -6.953   1.229   0.124  0.00  0.00    +0.000 OA
ATOM     36  H41 UNK     0      -7.364   0.487  -0.392  0.00  0.00    +0.000 HD
ENDBRANCH  28  35
BRANCH  29  37
ATOM     37  C17 UNK     0      -3.761   1.908  -1.347  0.00  0.00    +0.000 C 
BRANCH  37  38
ATOM     38  O6  UNK     0      -4.285   3.201  -1.492  0.00  0.00    +0.000 OA
ATOM     39  H43 UNK     0      -4.400   3.573  -0.579  0.00  0.00    +0.000 HD
ENDBRANCH  37  38
ENDBRANCH  29  37
ENDBRANCH  24  25
ENDBRANCH   3  24
TORSDOF 11
