REMARK  Name = C:\Users\Maximilian\Desktop\Conformers\converted_pdb\conformers_pdb\Luteolin_conf_19.pdb
REMARK  11 active torsions:
REMARK  status: ('A' for Active; 'I' for Inactive)
REMARK    1  A    between atoms: C18_3  and  O2_12
REMARK    2  A    between atoms: C23_8  and  O8_28
REMARK    3  A    between atoms: C25_10  and  C27_30
REMARK    4  A    between atoms: O2_12  and  C16_13
REMARK    5  A    between atoms: C14_14  and  O5_19
REMARK    6  A    between atoms: C12_15  and  O3_21
REMARK    7  A    between atoms: C13_16  and  O4_23
REMARK    8  A    between atoms: C15_17  and  C17_25
REMARK    9  A    between atoms: C17_25  and  O6_26
REMARK   10  A    between atoms: C30_32  and  O10_36
REMARK   11  A    between atoms: C32_33  and  O11_38
REMARK                            x       y       z     vdW  Elec       q    Type
REMARK                         _______ _______ _______ _____ _____    ______ ____
ROOT
ATOM      1  O7  UNK     0       2.173  -0.595   0.499  0.00  0.00    +0.000 OA
ATOM      2  O9  UNK     0       2.569  -4.193  -1.199  0.00  0.00    +0.000 OA
ATOM      3  C18 UNK     0      -1.368  -1.343   0.231  0.00  0.00    +0.000 A 
ATOM      4  C19 UNK     0      -0.168  -0.684   0.533  0.00  0.00    +0.000 A 
ATOM      5  C20 UNK     0      -1.322  -2.573  -0.426  0.00  0.00    +0.000 A 
ATOM      6  C21 UNK     0       1.061  -1.253   0.188  0.00  0.00    +0.000 A 
ATOM      7  C22 UNK     0       1.118  -2.507  -0.473  0.00  0.00    +0.000 A 
ATOM      8  C23 UNK     0      -0.108  -3.152  -0.813  0.00  0.00    +0.000 A 
ATOM      9  C24 UNK     0       2.405  -3.045  -0.713  0.00  0.00    +0.000 A 
ATOM     10  C25 UNK     0       3.392  -1.052   0.235  0.00  0.00    +0.000 A 
ATOM     11  C26 UNK     0       3.539  -2.307  -0.372  0.00  0.00    +0.000 A 
ENDROOT
BRANCH  10  12
ATOM     12  C27 UNK     0       4.563  -0.223   0.616  0.00  0.00    +0.000 A 
ATOM     13  C28 UNK     0       5.783  -0.301  -0.084  0.00  0.00    +0.000 A 
ATOM     14  C30 UNK     0       6.869   0.503   0.283  0.00  0.00    +0.000 A 
ATOM     15  C32 UNK     0       6.746   1.400   1.356  0.00  0.00    +0.000 A 
ATOM     16  C31 UNK     0       5.532   1.489   2.049  0.00  0.00    +0.000 A 
ATOM     17  C29 UNK     0       4.449   0.689   1.680  0.00  0.00    +0.000 A 
BRANCH  14  18
ATOM     18  O10 UNK     0       8.060   0.400  -0.436  0.00  0.00    +0.000 OA
ATOM     19  H51 UNK     0       8.873   0.963  -0.214  0.00  0.00    +0.000 HD
ENDBRANCH  14  18
BRANCH  15  20
ATOM     20  O11 UNK     0       7.825   2.200   1.727  0.00  0.00    +0.000 OA
ATOM     21  H52 UNK     0       7.760   2.856   2.497  0.00  0.00    +0.000 HD
ENDBRANCH  15  20
ENDBRANCH  10  12
BRANCH   8  22
ATOM     22  O8  UNK     0      -0.190  -4.339  -1.546  0.00  0.00    +0.000 OA
ATOM     23  H47 UNK     0       0.556  -4.727  -2.103  0.00  0.00    +0.000 HD
ENDBRANCH   8  22
BRANCH   3  24
ATOM     24  O2  UNK     0      -2.629  -0.825   0.567  0.00  0.00    +0.000 OA
BRANCH  24  25
ATOM     25  C16 UNK     0      -2.914   0.516   0.979  0.00  0.00    +0.000 C 
ATOM     26  C14 UNK     0      -2.742   1.513  -0.203  0.00  0.00    +0.000 C 
ATOM     27  C12 UNK     0      -3.816   2.607  -0.128  0.00  0.00    +0.000 C 
ATOM     28  C13 UNK     0      -5.217   1.966  -0.181  0.00  0.00    +0.000 C 
ATOM     29  C15 UNK     0      -5.285   0.664   0.672  0.00  0.00    +0.000 C 
ATOM     30  O1  UNK     0      -4.201   0.557   1.589  0.00  0.00    +0.000 OA
BRANCH  26  31
ATOM     31  O5  UNK     0      -1.466   2.098  -0.148  0.00  0.00    +0.000 OA
ATOM     32  H42 UNK     0      -1.237   2.385  -1.071  0.00  0.00    +0.000 HD
ENDBRANCH  26  31
BRANCH  27  33
ATOM     33  O3  UNK     0      -3.660   3.552  -1.158  0.00  0.00    +0.000 OA
ATOM     34  H40 UNK     0      -3.699   3.068  -2.024  0.00  0.00    +0.000 HD
ENDBRANCH  27  33
BRANCH  28  35
ATOM     35  O4  UNK     0      -6.190   2.894   0.234  0.00  0.00    +0.000 OA
ATOM     36  H41 UNK     0      -6.010   3.112   1.186  0.00  0.00    +0.000 HD
ENDBRANCH  28  35
BRANCH  29  37
ATOM     37  C17 UNK     0      -5.466  -0.604  -0.187  0.00  0.00    +0.000 C 
BRANCH  37  38
ATOM     38  O6  UNK     0      -5.471  -1.739   0.633  0.00  0.00    +0.000 OA
ATOM     39  H43 UNK     0      -5.559  -2.518   0.025  0.00  0.00    +0.000 HD
ENDBRANCH  37  38
ENDBRANCH  29  37
ENDBRANCH  24  25
ENDBRANCH   3  24
TORSDOF 11
