REMARK  Name = C:\Users\Maximilian\Desktop\Conformers\converted_pdb\conformers_pdb\Luteolin_conf_27.pdb
REMARK  11 active torsions:
REMARK  status: ('A' for Active; 'I' for Inactive)
REMARK    1  A    between atoms: C18_3  and  O2_12
REMARK    2  A    between atoms: C23_8  and  O8_28
REMARK    3  A    between atoms: C25_10  and  C27_30
REMARK    4  A    between atoms: O2_12  and  C16_13
REMARK    5  A    between atoms: C14_14  and  O5_19
REMARK    6  A    between atoms: C12_15  and  O3_21
REMARK    7  A    between atoms: C13_16  and  O4_23
REMARK    8  A    between atoms: C15_17  and  C17_25
REMARK    9  A    between atoms: C17_25  and  O6_26
REMARK   10  A    between atoms: C30_32  and  O10_36
REMARK   11  A    between atoms: C32_33  and  O11_38
REMARK                            x       y       z     vdW  Elec       q    Type
REMARK                         _______ _______ _______ _____ _____    ______ ____
ROOT
ATOM      1  O7  UNK     0       2.879  -0.020  -0.271  0.00  0.00    +0.000 OA
ATOM      2  O9  UNK     0       2.632  -3.236  -2.646  0.00  0.00    +0.000 OA
ATOM      3  C18 UNK     0      -0.732  -0.047  -0.669  0.00  0.00    +0.000 A 
ATOM      4  C19 UNK     0       0.553   0.325  -0.265  0.00  0.00    +0.000 A 
ATOM      5  C20 UNK     0      -0.889  -1.157  -1.519  0.00  0.00    +0.000 A 
ATOM      6  C21 UNK     0       1.673  -0.400  -0.680  0.00  0.00    +0.000 A 
ATOM      7  C22 UNK     0       1.521  -1.523  -1.525  0.00  0.00    +0.000 A 
ATOM      8  C23 UNK     0       0.224  -1.897  -1.946  0.00  0.00    +0.000 A 
ATOM      9  C24 UNK     0       2.686  -2.219  -1.904  0.00  0.00    +0.000 A 
ATOM     10  C25 UNK     0       4.001  -0.648  -0.618  0.00  0.00    +0.000 A 
ATOM     11  C26 UNK     0       3.930  -1.779  -1.447  0.00  0.00    +0.000 A 
ENDROOT
BRANCH  10  12
ATOM     12  C27 UNK     0       5.295  -0.135  -0.101  0.00  0.00    +0.000 A 
ATOM     13  C28 UNK     0       5.321   0.587   1.105  0.00  0.00    +0.000 A 
ATOM     14  C30 UNK     0       6.523   1.090   1.615  0.00  0.00    +0.000 A 
ATOM     15  C32 UNK     0       7.721   0.883   0.912  0.00  0.00    +0.000 A 
ATOM     16  C31 UNK     0       7.702   0.176  -0.297  0.00  0.00    +0.000 A 
ATOM     17  C29 UNK     0       6.500  -0.326  -0.803  0.00  0.00    +0.000 A 
BRANCH  14  18
ATOM     18  O10 UNK     0       6.508   1.792   2.819  0.00  0.00    +0.000 OA
ATOM     19  H51 UNK     0       7.350   2.176   3.230  0.00  0.00    +0.000 HD
ENDBRANCH  14  18
BRANCH  15  20
ATOM     20  O11 UNK     0       8.922   1.380   1.414  0.00  0.00    +0.000 OA
ATOM     21  H52 UNK     0       9.799   1.245   0.924  0.00  0.00    +0.000 HD
ENDBRANCH  15  20
ENDBRANCH  10  12
BRANCH   8  22
ATOM     22  O8  UNK     0       0.033  -2.996  -2.785  0.00  0.00    +0.000 OA
ATOM     23  H47 UNK     0      -0.890  -3.277  -3.095  0.00  0.00    +0.000 HD
ENDBRANCH   8  22
BRANCH   3  24
ATOM     24  O2  UNK     0      -1.812   0.726  -0.211  0.00  0.00    +0.000 OA
BRANCH  24  25
ATOM     25  C16 UNK     0      -3.198   0.389  -0.316  0.00  0.00    +0.000 C 
ATOM     26  C14 UNK     0      -3.551  -0.718   0.716  0.00  0.00    +0.000 C 
ATOM     27  C12 UNK     0      -4.898  -0.435   1.416  0.00  0.00    +0.000 C 
ATOM     28  C13 UNK     0      -5.922   0.144   0.420  0.00  0.00    +0.000 C 
ATOM     29  C15 UNK     0      -5.318   1.355  -0.363  0.00  0.00    +0.000 C 
ATOM     30  O1  UNK     0      -3.947   1.562  -0.057  0.00  0.00    +0.000 OA
BRANCH  26  31
ATOM     31  O5  UNK     0      -3.626  -1.964   0.068  0.00  0.00    +0.000 OA
ATOM     32  H42 UNK     0      -2.777  -2.445   0.248  0.00  0.00    +0.000 HD
ENDBRANCH  26  31
BRANCH  27  33
ATOM     33  O3  UNK     0      -4.689   0.472   2.469  0.00  0.00    +0.000 OA
ATOM     34  H40 UNK     0      -5.484   0.416   3.061  0.00  0.00    +0.000 HD
ENDBRANCH  27  33
BRANCH  28  35
ATOM     35  O4  UNK     0      -6.306  -0.865  -0.479  0.00  0.00    +0.000 OA
ATOM     36  H41 UNK     0      -7.134  -0.549  -0.927  0.00  0.00    +0.000 HD
ENDBRANCH  28  35
BRANCH  29  37
ATOM     37  C17 UNK     0      -6.088   2.652  -0.072  0.00  0.00    +0.000 C 
BRANCH  37  38
ATOM     38  O6  UNK     0      -6.019   2.989   1.288  0.00  0.00    +0.000 OA
ATOM     39  H43 UNK     0      -5.131   3.409   1.434  0.00  0.00    +0.000 HD
ENDBRANCH  37  38
ENDBRANCH  29  37
ENDBRANCH  24  25
ENDBRANCH   3  24
TORSDOF 11
