REMARK  Name = C:\Users\Maximilian\Desktop\Conformers\converted_pdb\conformers_pdb\Luteolin_conf_9.pdb
REMARK  11 active torsions:
REMARK  status: ('A' for Active; 'I' for Inactive)
REMARK    1  A    between atoms: C18_3  and  O2_12
REMARK    2  A    between atoms: C23_8  and  O8_28
REMARK    3  A    between atoms: C25_10  and  C27_30
REMARK    4  A    between atoms: O2_12  and  C16_13
REMARK    5  A    between atoms: C14_14  and  O5_19
REMARK    6  A    between atoms: C12_15  and  O3_21
REMARK    7  A    between atoms: C13_16  and  O4_23
REMARK    8  A    between atoms: C15_17  and  C17_25
REMARK    9  A    between atoms: C17_25  and  O6_26
REMARK   10  A    between atoms: C30_32  and  O10_36
REMARK   11  A    between atoms: C32_33  and  O11_38
REMARK                            x       y       z     vdW  Elec       q    Type
REMARK                         _______ _______ _______ _____ _____    ______ ____
ROOT
ATOM      1  O7  UNK     0      -2.900   0.325  -0.130  0.00  0.00    +0.000 OA
ATOM      2  O9  UNK     0      -2.924  -3.179  -2.071  0.00  0.00    +0.000 OA
ATOM      3  C18 UNK     0       0.647  -0.407   0.160  0.00  0.00    +0.000 A 
ATOM      4  C19 UNK     0      -0.586   0.241   0.276  0.00  0.00    +0.000 A 
ATOM      5  C20 UNK     0       0.707  -1.650  -0.500  0.00  0.00    +0.000 A 
ATOM      6  C21 UNK     0      -1.746  -0.323  -0.259  0.00  0.00    +0.000 A 
ATOM      7  C22 UNK     0      -1.690  -1.567  -0.928  0.00  0.00    +0.000 A 
ATOM      8  C23 UNK     0      -0.448  -2.230  -1.044  0.00  0.00    +0.000 A 
ATOM      9  C24 UNK     0      -2.893  -2.081  -1.452  0.00  0.00    +0.000 A 
ATOM     10  C25 UNK     0      -4.055  -0.137  -0.604  0.00  0.00    +0.000 A 
ATOM     11  C26 UNK     0      -4.078  -1.363  -1.291  0.00  0.00    +0.000 A 
ENDROOT
BRANCH  10  12
ATOM     12  C27 UNK     0      -5.284   0.671  -0.403  0.00  0.00    +0.000 A 
ATOM     13  C28 UNK     0      -6.559   0.076  -0.330  0.00  0.00    +0.000 A 
ATOM     14  C30 UNK     0      -7.704   0.862  -0.130  0.00  0.00    +0.000 A 
ATOM     15  C32 UNK     0      -7.581   2.254   0.006  0.00  0.00    +0.000 A 
ATOM     16  C31 UNK     0      -6.317   2.847  -0.053  0.00  0.00    +0.000 A 
ATOM     17  C29 UNK     0      -5.177   2.064  -0.250  0.00  0.00    +0.000 A 
BRANCH  14  18
ATOM     18  O10 UNK     0      -8.961   0.263  -0.061  0.00  0.00    +0.000 OA
ATOM     19  H51 UNK     0      -9.078  -0.739  -0.155  0.00  0.00    +0.000 HD
ENDBRANCH  14  18
BRANCH  15  20
ATOM     20  O11 UNK     0      -8.700   3.062   0.203  0.00  0.00    +0.000 OA
ATOM     21  H52 UNK     0      -9.637   2.680   0.253  0.00  0.00    +0.000 HD
ENDBRANCH  15  20
ENDBRANCH  10  12
BRANCH   8  22
ATOM     22  O8  UNK     0      -0.353  -3.461  -1.696  0.00  0.00    +0.000 OA
ATOM     23  H47 UNK     0       0.531  -3.949  -1.788  0.00  0.00    +0.000 HD
ENDBRANCH   8  22
BRANCH   3  24
ATOM     24  O2  UNK     0       1.771   0.220   0.726  0.00  0.00    +0.000 OA
BRANCH  24  25
ATOM     25  C16 UNK     0       3.133  -0.198   0.608  0.00  0.00    +0.000 C 
ATOM     26  C14 UNK     0       3.721   0.306  -0.728  0.00  0.00    +0.000 C 
ATOM     27  C12 UNK     0       5.213  -0.071  -0.808  0.00  0.00    +0.000 C 
ATOM     28  C13 UNK     0       5.955   0.378   0.468  0.00  0.00    +0.000 C 
ATOM     29  C15 UNK     0       5.185  -0.105   1.725  0.00  0.00    +0.000 C 
ATOM     30  O1  UNK     0       3.850   0.374   1.689  0.00  0.00    +0.000 OA
BRANCH  26  31
ATOM     31  O5  UNK     0       3.029  -0.266  -1.807  0.00  0.00    +0.000 OA
ATOM     32  H42 UNK     0       3.190   0.316  -2.594  0.00  0.00    +0.000 HD
ENDBRANCH  26  31
BRANCH  27  33
ATOM     33  O3  UNK     0       5.813   0.479  -1.955  0.00  0.00    +0.000 OA
ATOM     34  H40 UNK     0       5.734   1.467  -1.892  0.00  0.00    +0.000 HD
ENDBRANCH  27  33
BRANCH  28  35
ATOM     35  O4  UNK     0       7.279  -0.094   0.456  0.00  0.00    +0.000 OA
ATOM     36  H41 UNK     0       7.245  -1.087   0.471  0.00  0.00    +0.000 HD
ENDBRANCH  28  35
BRANCH  29  37
ATOM     37  C17 UNK     0       5.838   0.411   3.015  0.00  0.00    +0.000 C 
BRANCH  37  38
ATOM     38  O6  UNK     0       7.080  -0.205   3.216  0.00  0.00    +0.000 OA
ATOM     39  H43 UNK     0       7.447   0.183   4.053  0.00  0.00    +0.000 HD
ENDBRANCH  37  38
ENDBRANCH  29  37
ENDBRANCH  24  25
ENDBRANCH   3  24
TORSDOF 11
