REMARK  Name = C:\Users\Maximilian\Desktop\Conformers\converted_pdb\conformers_pdb\Luteolin_conf_12.pdb
REMARK  11 active torsions:
REMARK  status: ('A' for Active; 'I' for Inactive)
REMARK    1  A    between atoms: C18_3  and  O2_12
REMARK    2  A    between atoms: C23_8  and  O8_28
REMARK    3  A    between atoms: C25_10  and  C27_30
REMARK    4  A    between atoms: O2_12  and  C16_13
REMARK    5  A    between atoms: C14_14  and  O5_19
REMARK    6  A    between atoms: C12_15  and  O3_21
REMARK    7  A    between atoms: C13_16  and  O4_23
REMARK    8  A    between atoms: C15_17  and  C17_25
REMARK    9  A    between atoms: C17_25  and  O6_26
REMARK   10  A    between atoms: C30_32  and  O10_36
REMARK   11  A    between atoms: C32_33  and  O11_38
REMARK                            x       y       z     vdW  Elec       q    Type
REMARK                         _______ _______ _______ _____ _____    ______ ____
ROOT
ATOM      1  O7  UNK     0       2.814   0.043  -0.272  0.00  0.00    +0.000 OA
ATOM      2  O9  UNK     0       2.484  -3.244  -2.539  0.00  0.00    +0.000 OA
ATOM      3  C18 UNK     0      -0.813  -0.053  -0.453  0.00  0.00    +0.000 A 
ATOM      4  C19 UNK     0       0.487   0.350  -0.137  0.00  0.00    +0.000 A 
ATOM      5  C20 UNK     0      -1.000  -1.189  -1.262  0.00  0.00    +0.000 A 
ATOM      6  C21 UNK     0       1.592  -0.368  -0.598  0.00  0.00    +0.000 A 
ATOM      7  C22 UNK     0       1.410  -1.517  -1.401  0.00  0.00    +0.000 A 
ATOM      8  C23 UNK     0       0.098  -1.924  -1.733  0.00  0.00    +0.000 A 
ATOM      9  C24 UNK     0       2.564  -2.205  -1.829  0.00  0.00    +0.000 A 
ATOM     10  C25 UNK     0       3.924  -0.577  -0.668  0.00  0.00    +0.000 A 
ATOM     11  C26 UNK     0       3.824  -1.733  -1.459  0.00  0.00    +0.000 A 
ENDROOT
BRANCH  10  12
ATOM     12  C27 UNK     0       5.237  -0.030  -0.243  0.00  0.00    +0.000 A 
ATOM     13  C28 UNK     0       6.401  -0.215  -1.013  0.00  0.00    +0.000 A 
ATOM     14  C30 UNK     0       7.628   0.320  -0.595  0.00  0.00    +0.000 A 
ATOM     15  C32 UNK     0       7.699   1.055   0.600  0.00  0.00    +0.000 A 
ATOM     16  C31 UNK     0       6.544   1.253   1.361  0.00  0.00    +0.000 A 
ATOM     17  C29 UNK     0       5.322   0.721   0.943  0.00  0.00    +0.000 A 
BRANCH  14  18
ATOM     18  O10 UNK     0       8.775   0.129  -1.364  0.00  0.00    +0.000 OA
ATOM     19  H51 UNK     0       8.752  -0.396  -2.230  0.00  0.00    +0.000 HD
ENDBRANCH  14  18
BRANCH  15  20
ATOM     20  O11 UNK     0       8.905   1.597   1.044  0.00  0.00    +0.000 OA
ATOM     21  H52 UNK     0       9.769   1.482   0.528  0.00  0.00    +0.000 HD
ENDBRANCH  15  20
ENDBRANCH  10  12
BRANCH   8  22
ATOM     22  O8  UNK     0      -0.123  -3.050  -2.528  0.00  0.00    +0.000 OA
ATOM     23  H47 UNK     0      -1.057  -3.354  -2.774  0.00  0.00    +0.000 HD
ENDBRANCH   8  22
BRANCH   3  24
ATOM     24  O2  UNK     0      -1.877   0.718   0.045  0.00  0.00    +0.000 OA
BRANCH  24  25
ATOM     25  C16 UNK     0      -3.262   0.363   0.035  0.00  0.00    +0.000 C 
ATOM     26  C14 UNK     0      -3.550  -0.668   1.157  0.00  0.00    +0.000 C 
ATOM     27  C12 UNK     0      -4.972  -0.488   1.751  0.00  0.00    +0.000 C 
ATOM     28  C13 UNK     0      -5.964   0.072   0.711  0.00  0.00    +0.000 C 
ATOM     29  C15 UNK     0      -5.385   1.326  -0.024  0.00  0.00    +0.000 C 
ATOM     30  O1  UNK     0      -4.011   1.540   0.264  0.00  0.00    +0.000 OA
BRANCH  26  31
ATOM     31  O5  UNK     0      -3.431  -1.971   0.642  0.00  0.00    +0.000 OA
ATOM     32  H42 UNK     0      -2.525  -2.302   0.877  0.00  0.00    +0.000 HD
ENDBRANCH  26  31
BRANCH  27  33
ATOM     33  O3  UNK     0      -4.950   0.319   2.904  0.00  0.00    +0.000 OA
ATOM     34  H40 UNK     0      -4.525   1.184   2.673  0.00  0.00    +0.000 HD
ENDBRANCH  27  33
BRANCH  28  35
ATOM     35  O4  UNK     0      -6.251  -0.936  -0.225  0.00  0.00    +0.000 OA
ATOM     36  H41 UNK     0      -7.079  -0.660  -0.699  0.00  0.00    +0.000 HD
ENDBRANCH  28  35
BRANCH  29  37
ATOM     37  C17 UNK     0      -6.168   2.590   0.357  0.00  0.00    +0.000 C 
BRANCH  37  38
ATOM     38  O6  UNK     0      -5.705   3.694  -0.374  0.00  0.00    +0.000 OA
ATOM     39  H43 UNK     0      -4.900   4.032   0.098  0.00  0.00    +0.000 HD
ENDBRANCH  37  38
ENDBRANCH  29  37
ENDBRANCH  24  25
ENDBRANCH   3  24
TORSDOF 11
