REMARK  Name = C:\Users\Maximilian\Desktop\Conformers\converted_pdb\conformers_pdb\Luteolin_conf_26.pdb
REMARK  11 active torsions:
REMARK  status: ('A' for Active; 'I' for Inactive)
REMARK    1  A    between atoms: C18_3  and  O2_12
REMARK    2  A    between atoms: C23_8  and  O8_28
REMARK    3  A    between atoms: C25_10  and  C27_30
REMARK    4  A    between atoms: O2_12  and  C16_13
REMARK    5  A    between atoms: C14_14  and  O5_19
REMARK    6  A    between atoms: C12_15  and  O3_21
REMARK    7  A    between atoms: C13_16  and  O4_23
REMARK    8  A    between atoms: C15_17  and  C17_25
REMARK    9  A    between atoms: C17_25  and  O6_26
REMARK   10  A    between atoms: C30_32  and  O10_36
REMARK   11  A    between atoms: C32_33  and  O11_38
REMARK                            x       y       z     vdW  Elec       q    Type
REMARK                         _______ _______ _______ _____ _____    ______ ____
ROOT
ATOM      1  O7  UNK     0       2.349  -0.566   0.034  0.00  0.00    +0.000 OA
ATOM      2  O9  UNK     0       3.602  -3.726  -2.085  0.00  0.00    +0.000 OA
ATOM      3  C18 UNK     0      -0.923  -1.914  -0.813  0.00  0.00    +0.000 A 
ATOM      4  C19 UNK     0       0.076  -1.084  -0.274  0.00  0.00    +0.000 A 
ATOM      5  C20 UNK     0      -0.548  -3.043  -1.547  0.00  0.00    +0.000 A 
ATOM      6  C21 UNK     0       1.427  -1.373  -0.483  0.00  0.00    +0.000 A 
ATOM      7  C22 UNK     0       1.807  -2.508  -1.235  0.00  0.00    +0.000 A 
ATOM      8  C23 UNK     0       0.803  -3.349  -1.767  0.00  0.00    +0.000 A 
ATOM      9  C24 UNK     0       3.185  -2.741  -1.418  0.00  0.00    +0.000 A 
ATOM     10  C25 UNK     0       3.657  -0.762  -0.111  0.00  0.00    +0.000 A 
ATOM     11  C26 UNK     0       4.112  -1.863  -0.855  0.00  0.00    +0.000 A 
ENDROOT
BRANCH  10  12
ATOM     12  C27 UNK     0       4.596   0.206   0.511  0.00  0.00    +0.000 A 
ATOM     13  C28 UNK     0       4.174   1.527   0.743  0.00  0.00    +0.000 A 
ATOM     14  C30 UNK     0       5.033   2.461   1.335  0.00  0.00    +0.000 A 
ATOM     15  C32 UNK     0       6.330   2.077   1.712  0.00  0.00    +0.000 A 
ATOM     16  C31 UNK     0       6.753   0.759   1.496  0.00  0.00    +0.000 A 
ATOM     17  C29 UNK     0       5.894  -0.171   0.905  0.00  0.00    +0.000 A 
BRANCH  14  18
ATOM     18  O10 UNK     0       4.579   3.763   1.539  0.00  0.00    +0.000 OA
ATOM     19  H51 UNK     0       5.161   4.476   1.964  0.00  0.00    +0.000 HD
ENDBRANCH  14  18
BRANCH  15  20
ATOM     20  O11 UNK     0       7.190   3.002   2.302  0.00  0.00    +0.000 OA
ATOM     21  H52 UNK     0       8.130   2.748   2.583  0.00  0.00    +0.000 HD
ENDBRANCH  15  20
ENDBRANCH  10  12
BRANCH   8  22
ATOM     22  O8  UNK     0       1.135  -4.482  -2.510  0.00  0.00    +0.000 OA
ATOM     23  H47 UNK     0       0.425  -5.093  -2.897  0.00  0.00    +0.000 HD
ENDBRANCH   8  22
BRANCH   3  24
ATOM     24  O2  UNK     0      -2.296  -1.671  -0.638  0.00  0.00    +0.000 OA
BRANCH  24  25
ATOM     25  C16 UNK     0      -2.885  -0.472  -0.129  0.00  0.00    +0.000 C 
ATOM     26  C14 UNK     0      -2.833   0.642  -1.210  0.00  0.00    +0.000 C 
ATOM     27  C12 UNK     0      -4.144   1.462  -1.242  0.00  0.00    +0.000 C 
ATOM     28  C13 UNK     0      -4.694   1.671   0.179  0.00  0.00    +0.000 C 
ATOM     29  C15 UNK     0      -4.800   0.311   0.945  0.00  0.00    +0.000 C 
ATOM     30  O1  UNK     0      -4.229  -0.762   0.210  0.00  0.00    +0.000 OA
BRANCH  26  31
ATOM     31  O5  UNK     0      -1.759   1.510  -0.946  0.00  0.00    +0.000 OA
ATOM     32  H42 UNK     0      -1.014   1.255  -1.551  0.00  0.00    +0.000 HD
ENDBRANCH  26  31
BRANCH  27  33
ATOM     33  O3  UNK     0      -5.112   0.795  -2.013  0.00  0.00    +0.000 OA
ATOM     34  H40 UNK     0      -4.881   0.952  -2.966  0.00  0.00    +0.000 HD
ENDBRANCH  27  33
BRANCH  28  35
ATOM     35  O4  UNK     0      -3.846   2.549   0.875  0.00  0.00    +0.000 OA
ATOM     36  H41 UNK     0      -4.352   2.867   1.667  0.00  0.00    +0.000 HD
ENDBRANCH  28  35
BRANCH  29  37
ATOM     37  C17 UNK     0      -6.260  -0.044   1.247  0.00  0.00    +0.000 C 
BRANCH  37  38
ATOM     38  O6  UNK     0      -6.818   0.906   2.113  0.00  0.00    +0.000 OA
ATOM     39  H43 UNK     0      -7.760   0.628   2.256  0.00  0.00    +0.000 HD
ENDBRANCH  37  38
ENDBRANCH  29  37
ENDBRANCH  24  25
ENDBRANCH   3  24
TORSDOF 11
