REMARK  Name = C:\Users\Maximilian\Desktop\Conformers\converted_pdb\conformers_pdb\Luteolin_conf_1.pdb
REMARK  11 active torsions:
REMARK  status: ('A' for Active; 'I' for Inactive)
REMARK    1  A    between atoms: C18_3  and  O2_12
REMARK    2  A    between atoms: C23_8  and  O8_28
REMARK    3  A    between atoms: C25_10  and  C27_30
REMARK    4  A    between atoms: O2_12  and  C16_13
REMARK    5  A    between atoms: C14_14  and  O5_19
REMARK    6  A    between atoms: C12_15  and  O3_21
REMARK    7  A    between atoms: C13_16  and  O4_23
REMARK    8  A    between atoms: C15_17  and  C17_25
REMARK    9  A    between atoms: C17_25  and  O6_26
REMARK   10  A    between atoms: C30_32  and  O10_36
REMARK   11  A    between atoms: C32_33  and  O11_38
REMARK                            x       y       z     vdW  Elec       q    Type
REMARK                         _______ _______ _______ _____ _____    ______ ____
ROOT
ATOM      1  O7  UNK     0      -2.256  -0.761  -0.213  0.00  0.00    +0.000 OA
ATOM      2  O9  UNK     0      -3.125  -4.610  -0.865  0.00  0.00    +0.000 OA
ATOM      3  C18 UNK     0       1.153  -1.887  -0.750  0.00  0.00    +0.000 A 
ATOM      4  C19 UNK     0       0.049  -1.058  -0.498  0.00  0.00    +0.000 A 
ATOM      5  C20 UNK     0       0.943  -3.254  -0.936  0.00  0.00    +0.000 A 
ATOM      6  C21 UNK     0      -1.242  -1.588  -0.443  0.00  0.00    +0.000 A 
ATOM      7  C22 UNK     0      -1.463  -2.977  -0.637  0.00  0.00    +0.000 A 
ATOM      8  C23 UNK     0      -0.334  -3.820  -0.853  0.00  0.00    +0.000 A 
ATOM      9  C24 UNK     0      -2.810  -3.415  -0.628  0.00  0.00    +0.000 A 
ATOM     10  C25 UNK     0      -3.525  -1.153  -0.167  0.00  0.00    +0.000 A 
ATOM     11  C26 UNK     0      -3.835  -2.503  -0.374  0.00  0.00    +0.000 A 
ENDROOT
BRANCH  10  12
ATOM     12  C27 UNK     0      -4.574  -0.139   0.110  0.00  0.00    +0.000 A 
ATOM     13  C28 UNK     0      -4.244   1.016   0.841  0.00  0.00    +0.000 A 
ATOM     14  C30 UNK     0      -5.208   1.994   1.112  0.00  0.00    +0.000 A 
ATOM     15  C32 UNK     0      -6.521   1.830   0.642  0.00  0.00    +0.000 A 
ATOM     16  C31 UNK     0      -6.855   0.690  -0.099  0.00  0.00    +0.000 A 
ATOM     17  C29 UNK     0      -5.891  -0.286  -0.367  0.00  0.00    +0.000 A 
BRANCH  14  18
ATOM     18  O10 UNK     0      -4.842   3.120   1.849  0.00  0.00    +0.000 OA
ATOM     19  H51 UNK     0      -5.502   3.855   2.071  0.00  0.00    +0.000 HD
ENDBRANCH  14  18
BRANCH  15  20
ATOM     20  O11 UNK     0      -7.486   2.800   0.908  0.00  0.00    +0.000 OA
ATOM     21  H52 UNK     0      -8.439   2.705   0.578  0.00  0.00    +0.000 HD
ENDBRANCH  15  20
ENDBRANCH  10  12
BRANCH   8  22
ATOM     22  O8  UNK     0      -0.406  -5.212  -0.970  0.00  0.00    +0.000 OA
ATOM     23  H47 UNK     0      -1.191  -5.778  -0.688  0.00  0.00    +0.000 HD
ENDBRANCH   8  22
BRANCH   3  24
ATOM     24  O2  UNK     0       2.473  -1.410  -0.835  0.00  0.00    +0.000 OA
BRANCH  24  25
ATOM     25  C16 UNK     0       2.944  -0.115  -0.450  0.00  0.00    +0.000 C 
ATOM     26  C14 UNK     0       3.195  -0.087   1.076  0.00  0.00    +0.000 C 
ATOM     27  C12 UNK     0       3.824   1.259   1.490  0.00  0.00    +0.000 C 
ATOM     28  C13 UNK     0       5.038   1.576   0.600  0.00  0.00    +0.000 C 
ATOM     29  C15 UNK     0       4.645   1.425  -0.890  0.00  0.00    +0.000 C 
ATOM     30  O1  UNK     0       4.162   0.114  -1.135  0.00  0.00    +0.000 OA
BRANCH  26  31
ATOM     31  O5  UNK     0       2.013  -0.332   1.795  0.00  0.00    +0.000 OA
ATOM     32  H42 UNK     0       1.404   0.438   1.646  0.00  0.00    +0.000 HD
ENDBRANCH  26  31
BRANCH  27  33
ATOM     33  O3  UNK     0       4.234   1.204   2.832  0.00  0.00    +0.000 OA
ATOM     34  H40 UNK     0       3.421   1.332   3.387  0.00  0.00    +0.000 HD
ENDBRANCH  27  33
BRANCH  28  35
ATOM     35  O4  UNK     0       5.471   2.889   0.850  0.00  0.00    +0.000 OA
ATOM     36  H41 UNK     0       6.022   2.859   1.675  0.00  0.00    +0.000 HD
ENDBRANCH  28  35
BRANCH  29  37
ATOM     37  C17 UNK     0       5.851   1.662  -1.816  0.00  0.00    +0.000 C 
BRANCH  37  38
ATOM     38  O6  UNK     0       6.273   2.999  -1.772  0.00  0.00    +0.000 OA
ATOM     39  H43 UNK     0       5.609   3.524  -2.290  0.00  0.00    +0.000 HD
ENDBRANCH  37  38
ENDBRANCH  29  37
ENDBRANCH  24  25
ENDBRANCH   3  24
TORSDOF 11
