REMARK  Name = C:\Users\Maximilian\Desktop\Conformers\converted_pdb\conformers_pdb\Luteolin_conf_24.pdb
REMARK  11 active torsions:
REMARK  status: ('A' for Active; 'I' for Inactive)
REMARK    1  A    between atoms: C18_3  and  O2_12
REMARK    2  A    between atoms: C23_8  and  O8_28
REMARK    3  A    between atoms: C25_10  and  C27_30
REMARK    4  A    between atoms: O2_12  and  C16_13
REMARK    5  A    between atoms: C14_14  and  O5_19
REMARK    6  A    between atoms: C12_15  and  O3_21
REMARK    7  A    between atoms: C13_16  and  O4_23
REMARK    8  A    between atoms: C15_17  and  C17_25
REMARK    9  A    between atoms: C17_25  and  O6_26
REMARK   10  A    between atoms: C30_32  and  O10_36
REMARK   11  A    between atoms: C32_33  and  O11_38
REMARK                            x       y       z     vdW  Elec       q    Type
REMARK                         _______ _______ _______ _____ _____    ______ ____
ROOT
ATOM      1  O7  UNK     0       2.558   0.170   0.301  0.00  0.00    +0.000 OA
ATOM      2  O9  UNK     0       2.473  -2.678   3.116  0.00  0.00    +0.000 OA
ATOM      3  C18 UNK     0      -1.028   0.167   0.874  0.00  0.00    +0.000 A 
ATOM      4  C19 UNK     0       0.229   0.489   0.358  0.00  0.00    +0.000 A 
ATOM      5  C20 UNK     0      -1.130  -0.818   1.874  0.00  0.00    +0.000 A 
ATOM      6  C21 UNK     0       1.378  -0.159   0.817  0.00  0.00    +0.000 A 
ATOM      7  C22 UNK     0       1.283  -1.153   1.818  0.00  0.00    +0.000 A 
ATOM      8  C23 UNK     0       0.013  -1.479   2.347  0.00  0.00    +0.000 A 
ATOM      9  C24 UNK     0       2.476  -1.776   2.235  0.00  0.00    +0.000 A 
ATOM     10  C25 UNK     0       3.704  -0.391   0.679  0.00  0.00    +0.000 A 
ATOM     11  C26 UNK     0       3.690  -1.394   1.662  0.00  0.00    +0.000 A 
ENDROOT
BRANCH  10  12
ATOM     12  C27 UNK     0       4.964   0.054   0.032  0.00  0.00    +0.000 A 
ATOM     13  C28 UNK     0       4.922   0.597  -1.264  0.00  0.00    +0.000 A 
ATOM     14  C30 UNK     0       6.092   1.034  -1.897  0.00  0.00    +0.000 A 
ATOM     15  C32 UNK     0       7.324   0.941  -1.230  0.00  0.00    +0.000 A 
ATOM     16  C31 UNK     0       7.372   0.414   0.066  0.00  0.00    +0.000 A 
ATOM     17  C29 UNK     0       6.204  -0.022   0.696  0.00  0.00    +0.000 A 
BRANCH  14  18
ATOM     18  O10 UNK     0       6.008   1.557  -3.187  0.00  0.00    +0.000 OA
ATOM     19  H51 UNK     0       6.825   1.887  -3.688  0.00  0.00    +0.000 HD
ENDBRANCH  14  18
BRANCH  15  20
ATOM     20  O11 UNK     0       8.492   1.374  -1.855  0.00  0.00    +0.000 OA
ATOM     21  H52 UNK     0       9.393   1.317  -1.394  0.00  0.00    +0.000 HD
ENDBRANCH  15  20
ENDBRANCH  10  12
BRANCH   8  22
ATOM     22  O8  UNK     0      -0.122  -2.453   3.338  0.00  0.00    +0.000 OA
ATOM     23  H47 UNK     0      -1.025  -2.698   3.726  0.00  0.00    +0.000 HD
ENDBRANCH   8  22
BRANCH   3  24
ATOM     24  O2  UNK     0      -2.146   0.846   0.363  0.00  0.00    +0.000 OA
BRANCH  24  25
ATOM     25  C16 UNK     0      -3.505   0.579   0.713  0.00  0.00    +0.000 C 
ATOM     26  C14 UNK     0      -4.429   1.653   0.083  0.00  0.00    +0.000 C 
ATOM     27  C12 UNK     0      -5.780   1.038  -0.297  0.00  0.00    +0.000 C 
ATOM     28  C13 UNK     0      -5.544  -0.096  -1.315  0.00  0.00    +0.000 C 
ATOM     29  C15 UNK     0      -4.284  -0.947  -0.965  0.00  0.00    +0.000 C 
ATOM     30  O1  UNK     0      -3.855  -0.764   0.380  0.00  0.00    +0.000 OA
BRANCH  26  31
ATOM     31  O5  UNK     0      -4.593   2.749   0.950  0.00  0.00    +0.000 OA
ATOM     32  H42 UNK     0      -5.099   2.435   1.745  0.00  0.00    +0.000 HD
ENDBRANCH  26  31
BRANCH  27  33
ATOM     33  O3  UNK     0      -6.607   2.026  -0.854  0.00  0.00    +0.000 OA
ATOM     34  H40 UNK     0      -7.531   1.665  -0.842  0.00  0.00    +0.000 HD
ENDBRANCH  27  33
BRANCH  28  35
ATOM     35  O4  UNK     0      -6.689  -0.908  -1.410  0.00  0.00    +0.000 OA
ATOM     36  H41 UNK     0      -6.820  -1.346  -0.528  0.00  0.00    +0.000 HD
ENDBRANCH  28  35
BRANCH  29  37
ATOM     37  C17 UNK     0      -3.137  -0.768  -1.978  0.00  0.00    +0.000 C 
BRANCH  37  38
ATOM     38  O6  UNK     0      -2.046  -1.566  -1.608  0.00  0.00    +0.000 OA
ATOM     39  H43 UNK     0      -1.328  -1.375  -2.266  0.00  0.00    +0.000 HD
ENDBRANCH  37  38
ENDBRANCH  29  37
ENDBRANCH  24  25
ENDBRANCH   3  24
TORSDOF 11
