REMARK  Name = C:\Users\Maximilian\Desktop\Conformers\converted_pdb\conformers_pdb\Luteolin_conf_23.pdb
REMARK  11 active torsions:
REMARK  status: ('A' for Active; 'I' for Inactive)
REMARK    1  A    between atoms: C18_3  and  O2_12
REMARK    2  A    between atoms: C23_8  and  O8_28
REMARK    3  A    between atoms: C25_10  and  C27_30
REMARK    4  A    between atoms: O2_12  and  C16_13
REMARK    5  A    between atoms: C14_14  and  O5_19
REMARK    6  A    between atoms: C12_15  and  O3_21
REMARK    7  A    between atoms: C13_16  and  O4_23
REMARK    8  A    between atoms: C15_17  and  C17_25
REMARK    9  A    between atoms: C17_25  and  O6_26
REMARK   10  A    between atoms: C30_32  and  O10_36
REMARK   11  A    between atoms: C32_33  and  O11_38
REMARK                            x       y       z     vdW  Elec       q    Type
REMARK                         _______ _______ _______ _____ _____    ______ ____
ROOT
ATOM      1  O7  UNK     0      -2.380   0.226   0.000  0.00  0.00    +0.000 OA
ATOM      2  O9  UNK     0      -2.708   4.155   0.669  0.00  0.00    +0.000 OA
ATOM      3  C18 UNK     0       1.083   1.060  -0.657  0.00  0.00    +0.000 A 
ATOM      4  C19 UNK     0      -0.097   0.334  -0.507  0.00  0.00    +0.000 A 
ATOM      5  C20 UNK     0       1.079   2.436  -0.382  0.00  0.00    +0.000 A 
ATOM      6  C21 UNK     0      -1.279   0.961  -0.112  0.00  0.00    +0.000 A 
ATOM      7  C22 UNK     0      -1.303   2.354   0.157  0.00  0.00    +0.000 A 
ATOM      8  C23 UNK     0      -0.083   3.087   0.052  0.00  0.00    +0.000 A 
ATOM      9  C24 UNK     0      -2.558   2.919   0.488  0.00  0.00    +0.000 A 
ATOM     10  C25 UNK     0      -3.564   0.725   0.341  0.00  0.00    +0.000 A 
ATOM     11  C26 UNK     0      -3.681   2.098   0.596  0.00  0.00    +0.000 A 
ENDROOT
BRANCH  10  12
ATOM     12  C27 UNK     0      -4.724  -0.196   0.444  0.00  0.00    +0.000 A 
ATOM     13  C28 UNK     0      -4.505  -1.553   0.741  0.00  0.00    +0.000 A 
ATOM     14  C30 UNK     0      -5.580  -2.448   0.837  0.00  0.00    +0.000 A 
ATOM     15  C32 UNK     0      -6.891  -1.990   0.626  0.00  0.00    +0.000 A 
ATOM     16  C31 UNK     0      -7.114  -0.646   0.318  0.00  0.00    +0.000 A 
ATOM     17  C29 UNK     0      -6.042   0.246   0.223  0.00  0.00    +0.000 A 
BRANCH  14  18
ATOM     18  O10 UNK     0      -5.350  -3.789   1.140  0.00  0.00    +0.000 OA
ATOM     19  H51 UNK     0      -4.414  -4.145   1.297  0.00  0.00    +0.000 HD
ENDBRANCH  14  18
BRANCH  15  20
ATOM     20  O11 UNK     0      -7.981  -2.856   0.714  0.00  0.00    +0.000 OA
ATOM     21  H52 UNK     0      -7.871  -3.838   0.934  0.00  0.00    +0.000 HD
ENDBRANCH  15  20
ENDBRANCH  10  12
BRANCH   8  22
ATOM     22  O8  UNK     0       0.048   4.439   0.381  0.00  0.00    +0.000 OA
ATOM     23  H47 UNK     0      -0.608   4.967   0.936  0.00  0.00    +0.000 HD
ENDBRANCH   8  22
BRANCH   3  24
ATOM     24  O2  UNK     0       2.231   0.369  -1.078  0.00  0.00    +0.000 OA
BRANCH  24  25
ATOM     25  C16 UNK     0       3.547   0.920  -1.209  0.00  0.00    +0.000 C 
ATOM     26  C14 UNK     0       4.191   1.189   0.180  0.00  0.00    +0.000 C 
ATOM     27  C12 UNK     0       5.020  -0.017   0.674  0.00  0.00    +0.000 C 
ATOM     28  C13 UNK     0       4.458  -1.321   0.097  0.00  0.00    +0.000 C 
ATOM     29  C15 UNK     0       4.506  -1.251  -1.455  0.00  0.00    +0.000 C 
ATOM     30  O1  UNK     0       4.360   0.063  -1.995  0.00  0.00    +0.000 OA
BRANCH  26  31
ATOM     31  O5  UNK     0       5.029   2.314   0.111  0.00  0.00    +0.000 OA
ATOM     32  H42 UNK     0       4.441   3.114   0.131  0.00  0.00    +0.000 HD
ENDBRANCH  26  31
BRANCH  27  33
ATOM     33  O3  UNK     0       5.001  -0.073   2.077  0.00  0.00    +0.000 OA
ATOM     34  H40 UNK     0       5.588   0.660   2.399  0.00  0.00    +0.000 HD
ENDBRANCH  27  33
BRANCH  28  35
ATOM     35  O4  UNK     0       5.225  -2.412   0.540  0.00  0.00    +0.000 OA
ATOM     36  H41 UNK     0       4.891  -2.654   1.443  0.00  0.00    +0.000 HD
ENDBRANCH  28  35
BRANCH  29  37
ATOM     37  C17 UNK     0       3.508  -2.216  -2.121  0.00  0.00    +0.000 C 
BRANCH  37  38
ATOM     38  O6  UNK     0       3.865  -3.549  -1.869  0.00  0.00    +0.000 OA
ATOM     39  H43 UNK     0       3.433  -3.806  -1.013  0.00  0.00    +0.000 HD
ENDBRANCH  37  38
ENDBRANCH  29  37
ENDBRANCH  24  25
ENDBRANCH   3  24
TORSDOF 11
