REMARK  Name = C:\Users\Maximilian\Desktop\Conformers\converted_pdb\conformers_pdb\Luteolin_conf_36.pdb
REMARK  11 active torsions:
REMARK  status: ('A' for Active; 'I' for Inactive)
REMARK    1  A    between atoms: C18_3  and  O2_12
REMARK    2  A    between atoms: C23_8  and  O8_28
REMARK    3  A    between atoms: C25_10  and  C27_30
REMARK    4  A    between atoms: O2_12  and  C16_13
REMARK    5  A    between atoms: C14_14  and  O5_19
REMARK    6  A    between atoms: C12_15  and  O3_21
REMARK    7  A    between atoms: C13_16  and  O4_23
REMARK    8  A    between atoms: C15_17  and  C17_25
REMARK    9  A    between atoms: C17_25  and  O6_26
REMARK   10  A    between atoms: C30_32  and  O10_36
REMARK   11  A    between atoms: C32_33  and  O11_38
REMARK                            x       y       z     vdW  Elec       q    Type
REMARK                         _______ _______ _______ _____ _____    ______ ____
ROOT
ATOM      1  O7  UNK     0      -2.333   0.712  -0.113  0.00  0.00    +0.000 OA
ATOM      2  O9  UNK     0      -3.135   4.354  -1.576  0.00  0.00    +0.000 OA
ATOM      3  C18 UNK     0       1.087   1.950  -0.238  0.00  0.00    +0.000 A 
ATOM      4  C19 UNK     0      -0.016   1.103  -0.026  0.00  0.00    +0.000 A 
ATOM      5  C20 UNK     0       0.868   3.241  -0.730  0.00  0.00    +0.000 A 
ATOM      6  C21 UNK     0      -1.312   1.538  -0.319  0.00  0.00    +0.000 A 
ATOM      7  C22 UNK     0      -1.531   2.839  -0.828  0.00  0.00    +0.000 A 
ATOM      8  C23 UNK     0      -0.425   3.694  -1.030  0.00  0.00    +0.000 A 
ATOM      9  C24 UNK     0      -2.859   3.215  -1.111  0.00  0.00    +0.000 A 
ATOM     10  C25 UNK     0      -3.600   1.039  -0.360  0.00  0.00    +0.000 A 
ATOM     11  C26 UNK     0      -3.896   2.311  -0.878  0.00  0.00    +0.000 A 
ENDROOT
BRANCH  10  12
ATOM     12  C27 UNK     0      -4.661   0.035  -0.093  0.00  0.00    +0.000 A 
ATOM     13  C28 UNK     0      -4.341  -1.334  -0.125  0.00  0.00    +0.000 A 
ATOM     14  C30 UNK     0      -5.316  -2.305   0.130  0.00  0.00    +0.000 A 
ATOM     15  C32 UNK     0      -6.630  -1.912   0.433  0.00  0.00    +0.000 A 
ATOM     16  C31 UNK     0      -6.954  -0.551   0.480  0.00  0.00    +0.000 A 
ATOM     17  C29 UNK     0      -5.978   0.417   0.223  0.00  0.00    +0.000 A 
BRANCH  14  18
ATOM     18  O10 UNK     0      -4.960  -3.652   0.079  0.00  0.00    +0.000 OA
ATOM     19  H51 UNK     0      -5.629  -4.392   0.257  0.00  0.00    +0.000 HD
ENDBRANCH  14  18
BRANCH  15  20
ATOM     20  O11 UNK     0      -7.606  -2.874   0.688  0.00  0.00    +0.000 OA
ATOM     21  H52 UNK     0      -8.561  -2.616   0.909  0.00  0.00    +0.000 HD
ENDBRANCH  15  20
ENDBRANCH  10  12
BRANCH   8  22
ATOM     22  O8  UNK     0      -0.598   4.987  -1.525  0.00  0.00    +0.000 OA
ATOM     23  H47 UNK     0       0.187   5.611  -1.675  0.00  0.00    +0.000 HD
ENDBRANCH   8  22
BRANCH   3  24
ATOM     24  O2  UNK     0       2.412   1.571   0.036  0.00  0.00    +0.000 OA
BRANCH  24  25
ATOM     25  C16 UNK     0       2.888   0.250   0.309  0.00  0.00    +0.000 C 
ATOM     26  C14 UNK     0       3.102  -0.510  -1.021  0.00  0.00    +0.000 C 
ATOM     27  C12 UNK     0       3.732  -1.891  -0.754  0.00  0.00    +0.000 C 
ATOM     28  C13 UNK     0       4.977  -1.741   0.136  0.00  0.00    +0.000 C 
ATOM     29  C15 UNK     0       4.621  -0.893   1.382  0.00  0.00    +0.000 C 
ATOM     30  O1  UNK     0       4.124   0.376   0.990  0.00  0.00    +0.000 OA
BRANCH  26  31
ATOM     31  O5  UNK     0       1.901  -0.639  -1.740  0.00  0.00    +0.000 OA
ATOM     32  H42 UNK     0       1.300  -1.234  -1.220  0.00  0.00    +0.000 HD
ENDBRANCH  26  31
BRANCH  27  33
ATOM     33  O3  UNK     0       4.082  -2.483  -1.978  0.00  0.00    +0.000 OA
ATOM     34  H40 UNK     0       4.170  -3.458  -1.812  0.00  0.00    +0.000 HD
ENDBRANCH  27  33
BRANCH  28  35
ATOM     35  O4  UNK     0       5.416  -3.018   0.527  0.00  0.00    +0.000 OA
ATOM     36  H41 UNK     0       6.406  -2.980   0.588  0.00  0.00    +0.000 HD
ENDBRANCH  28  35
BRANCH  29  37
ATOM     37  C17 UNK     0       5.840  -0.681   2.294  0.00  0.00    +0.000 C 
BRANCH  37  38
ATOM     38  O6  UNK     0       6.887  -0.048   1.606  0.00  0.00    +0.000 OA
ATOM     39  H43 UNK     0       6.661   0.918   1.567  0.00  0.00    +0.000 HD
ENDBRANCH  37  38
ENDBRANCH  29  37
ENDBRANCH  24  25
ENDBRANCH   3  24
TORSDOF 11
