REMARK  Name = C:\Users\Maximilian\Desktop\Conformers\converted_pdb\conformers_pdb\Luteolin_conf_16.pdb
REMARK  11 active torsions:
REMARK  status: ('A' for Active; 'I' for Inactive)
REMARK    1  A    between atoms: C18_3  and  O2_12
REMARK    2  A    between atoms: C23_8  and  O8_28
REMARK    3  A    between atoms: C25_10  and  C27_30
REMARK    4  A    between atoms: O2_12  and  C16_13
REMARK    5  A    between atoms: C14_14  and  O5_19
REMARK    6  A    between atoms: C12_15  and  O3_21
REMARK    7  A    between atoms: C13_16  and  O4_23
REMARK    8  A    between atoms: C15_17  and  C17_25
REMARK    9  A    between atoms: C17_25  and  O6_26
REMARK   10  A    between atoms: C30_32  and  O10_36
REMARK   11  A    between atoms: C32_33  and  O11_38
REMARK                            x       y       z     vdW  Elec       q    Type
REMARK                         _______ _______ _______ _____ _____    ______ ____
ROOT
ATOM      1  O7  UNK     0       2.206  -0.598   0.054  0.00  0.00    +0.000 OA
ATOM      2  O9  UNK     0       3.264  -4.449   0.365  0.00  0.00    +0.000 OA
ATOM      3  C18 UNK     0      -1.050  -2.058  -0.657  0.00  0.00    +0.000 A 
ATOM      4  C19 UNK     0      -0.034  -1.109  -0.449  0.00  0.00    +0.000 A 
ATOM      5  C20 UNK     0      -0.744  -3.418  -0.557  0.00  0.00    +0.000 A 
ATOM      6  C21 UNK     0       1.267  -1.518  -0.142  0.00  0.00    +0.000 A 
ATOM      7  C22 UNK     0       1.577  -2.894  -0.039  0.00  0.00    +0.000 A 
ATOM      8  C23 UNK     0       0.555  -3.848  -0.251  0.00  0.00    +0.000 A 
ATOM      9  C24 UNK     0       2.907  -3.244   0.267  0.00  0.00    +0.000 A 
ATOM     10  C25 UNK     0       3.469  -0.893   0.354  0.00  0.00    +0.000 A 
ATOM     11  C26 UNK     0       3.856  -2.239   0.462  0.00  0.00    +0.000 A 
ENDROOT
BRANCH  10  12
ATOM     12  C27 UNK     0       4.434   0.218   0.551  0.00  0.00    +0.000 A 
ATOM     13  C28 UNK     0       4.203   1.455  -0.078  0.00  0.00    +0.000 A 
ATOM     14  C30 UNK     0       5.089   2.524   0.095  0.00  0.00    +0.000 A 
ATOM     15  C32 UNK     0       6.219   2.370   0.914  0.00  0.00    +0.000 A 
ATOM     16  C31 UNK     0       6.449   1.147   1.555  0.00  0.00    +0.000 A 
ATOM     17  C29 UNK     0       5.563   0.080   1.380  0.00  0.00    +0.000 A 
BRANCH  14  18
ATOM     18  O10 UNK     0       4.829   3.731  -0.555  0.00  0.00    +0.000 OA
ATOM     19  H51 UNK     0       5.438   4.534  -0.461  0.00  0.00    +0.000 HD
ENDBRANCH  14  18
BRANCH  15  20
ATOM     20  O11 UNK     0       7.105   3.432   1.090  0.00  0.00    +0.000 OA
ATOM     21  H52 UNK     0       7.928   3.345   1.676  0.00  0.00    +0.000 HD
ENDBRANCH  15  20
ENDBRANCH  10  12
BRANCH   8  22
ATOM     22  O8  UNK     0       0.820  -5.215  -0.160  0.00  0.00    +0.000 OA
ATOM     23  H47 UNK     0       0.097  -5.909  -0.309  0.00  0.00    +0.000 HD
ENDBRANCH   8  22
BRANCH   3  24
ATOM     24  O2  UNK     0      -2.371  -1.697  -0.964  0.00  0.00    +0.000 OA
BRANCH  24  25
ATOM     25  C16 UNK     0      -2.854  -0.356  -1.061  0.00  0.00    +0.000 C 
ATOM     26  C14 UNK     0      -4.323  -0.390  -1.575  0.00  0.00    +0.000 C 
ATOM     27  C12 UNK     0      -5.309  -0.057  -0.435  0.00  0.00    +0.000 C 
ATOM     28  C13 UNK     0      -4.937   1.289   0.236  0.00  0.00    +0.000 C 
ATOM     29  C15 UNK     0      -3.400   1.510   0.227  0.00  0.00    +0.000 C 
ATOM     30  O1  UNK     0      -2.733   0.263   0.213  0.00  0.00    +0.000 OA
BRANCH  26  31
ATOM     31  O5  UNK     0      -4.473   0.538  -2.621  0.00  0.00    +0.000 OA
ATOM     32  H42 UNK     0      -5.319   0.312  -3.089  0.00  0.00    +0.000 HD
ENDBRANCH  26  31
BRANCH  27  33
ATOM     33  O3  UNK     0      -5.278  -1.078   0.531  0.00  0.00    +0.000 OA
ATOM     34  H40 UNK     0      -5.767  -1.853   0.149  0.00  0.00    +0.000 HD
ENDBRANCH  27  33
BRANCH  28  35
ATOM     35  O4  UNK     0      -5.555   2.353  -0.443  0.00  0.00    +0.000 OA
ATOM     36  H41 UNK     0      -6.509   2.357  -0.166  0.00  0.00    +0.000 HD
ENDBRANCH  28  35
BRANCH  29  37
ATOM     37  C17 UNK     0      -2.936   2.301   1.459  0.00  0.00    +0.000 C 
BRANCH  37  38
ATOM     38  O6  UNK     0      -3.550   3.561   1.506  0.00  0.00    +0.000 OA
ATOM     39  H43 UNK     0      -3.105   4.120   0.818  0.00  0.00    +0.000 HD
ENDBRANCH  37  38
ENDBRANCH  29  37
ENDBRANCH  24  25
ENDBRANCH   3  24
TORSDOF 11
