REMARK  Name = C:\Users\Maximilian\Desktop\Conformers\converted_pdb\conformers_pdb\Luteolin_conf_32.pdb
REMARK  11 active torsions:
REMARK  status: ('A' for Active; 'I' for Inactive)
REMARK    1  A    between atoms: C18_3  and  O2_12
REMARK    2  A    between atoms: C23_8  and  O8_28
REMARK    3  A    between atoms: C25_10  and  C27_30
REMARK    4  A    between atoms: O2_12  and  C16_13
REMARK    5  A    between atoms: C14_14  and  O5_19
REMARK    6  A    between atoms: C12_15  and  O3_21
REMARK    7  A    between atoms: C13_16  and  O4_23
REMARK    8  A    between atoms: C15_17  and  C17_25
REMARK    9  A    between atoms: C17_25  and  O6_26
REMARK   10  A    between atoms: C30_32  and  O10_36
REMARK   11  A    between atoms: C32_33  and  O11_38
REMARK                            x       y       z     vdW  Elec       q    Type
REMARK                         _______ _______ _______ _____ _____    ______ ____
ROOT
ATOM      1  O7  UNK     0       2.446   0.141  -0.150  0.00  0.00    +0.000 OA
ATOM      2  O9  UNK     0       2.985  -3.765   0.521  0.00  0.00    +0.000 OA
ATOM      3  C18 UNK     0      -0.983  -0.878  -0.733  0.00  0.00    +0.000 A 
ATOM      4  C19 UNK     0       0.157  -0.088  -0.596  0.00  0.00    +0.000 A 
ATOM      5  C20 UNK     0      -0.866  -2.272  -0.616  0.00  0.00    +0.000 A 
ATOM      6  C21 UNK     0       1.395  -0.659  -0.295  0.00  0.00    +0.000 A 
ATOM      7  C22 UNK     0       1.521  -2.063  -0.139  0.00  0.00    +0.000 A 
ATOM      8  C23 UNK     0       0.370  -2.877  -0.351  0.00  0.00    +0.000 A 
ATOM      9  C24 UNK     0       2.791  -2.551   0.252  0.00  0.00    +0.000 A 
ATOM     10  C25 UNK     0       3.662  -0.297   0.161  0.00  0.00    +0.000 A 
ATOM     11  C26 UNK     0       3.862  -1.666   0.385  0.00  0.00    +0.000 A 
ENDROOT
BRANCH  10  12
ATOM     12  C27 UNK     0       4.766   0.688   0.287  0.00  0.00    +0.000 A 
ATOM     13  C28 UNK     0       6.108   0.329   0.053  0.00  0.00    +0.000 A 
ATOM     14  C30 UNK     0       7.131   1.282   0.169  0.00  0.00    +0.000 A 
ATOM     15  C32 UNK     0       6.821   2.602   0.514  0.00  0.00    +0.000 A 
ATOM     16  C31 UNK     0       5.488   2.969   0.735  0.00  0.00    +0.000 A 
ATOM     17  C29 UNK     0       4.468   2.021   0.617  0.00  0.00    +0.000 A 
BRANCH  14  18
ATOM     18  O10 UNK     0       8.458   0.923  -0.061  0.00  0.00    +0.000 OA
ATOM     19  H51 UNK     0       8.716  -0.024  -0.312  0.00  0.00    +0.000 HD
ENDBRANCH  14  18
BRANCH  15  20
ATOM     20  O11 UNK     0       7.841   3.545   0.631  0.00  0.00    +0.000 OA
ATOM     21  H52 UNK     0       7.647   4.508   0.878  0.00  0.00    +0.000 HD
ENDBRANCH  15  20
ENDBRANCH  10  12
BRANCH   8  22
ATOM     22  O8  UNK     0       0.391  -4.275  -0.341  0.00  0.00    +0.000 OA
ATOM     23  H47 UNK     0       1.222  -4.838  -0.438  0.00  0.00    +0.000 HD
ENDBRANCH   8  22
BRANCH   3  24
ATOM     24  O2  UNK     0      -2.200  -0.233  -1.008  0.00  0.00    +0.000 OA
BRANCH  24  25
ATOM     25  C16 UNK     0      -3.506  -0.807  -0.897  0.00  0.00    +0.000 C 
ATOM     26  C14 UNK     0      -3.875  -1.079   0.589  0.00  0.00    +0.000 C 
ATOM     27  C12 UNK     0      -5.357  -0.770   0.830  0.00  0.00    +0.000 C 
ATOM     28  C13 UNK     0      -5.627   0.704   0.485  0.00  0.00    +0.000 C 
ATOM     29  C15 UNK     0      -4.903   1.134  -0.827  0.00  0.00    +0.000 C 
ATOM     30  O1  UNK     0      -4.442   0.020  -1.583  0.00  0.00    +0.000 OA
BRANCH  26  31
ATOM     31  O5  UNK     0      -3.613  -2.424   0.902  0.00  0.00    +0.000 OA
ATOM     32  H42 UNK     0      -3.415  -2.465   1.874  0.00  0.00    +0.000 HD
ENDBRANCH  26  31
BRANCH  27  33
ATOM     33  O3  UNK     0      -5.692  -0.997   2.176  0.00  0.00    +0.000 OA
ATOM     34  H40 UNK     0      -5.901  -1.964   2.265  0.00  0.00    +0.000 HD
ENDBRANCH  27  33
BRANCH  28  35
ATOM     35  O4  UNK     0      -7.012   0.938   0.399  0.00  0.00    +0.000 OA
ATOM     36  H41 UNK     0      -7.361   0.402  -0.361  0.00  0.00    +0.000 HD
ENDBRANCH  28  35
BRANCH  29  37
ATOM     37  C17 UNK     0      -3.793   2.178  -0.590  0.00  0.00    +0.000 C 
BRANCH  37  38
ATOM     38  O6  UNK     0      -4.363   3.393  -0.186  0.00  0.00    +0.000 OA
ATOM     39  H43 UNK     0      -3.606   4.022  -0.056  0.00  0.00    +0.000 HD
ENDBRANCH  37  38
ENDBRANCH  29  37
ENDBRANCH  24  25
ENDBRANCH   3  24
TORSDOF 11
