REMARK  Name = C:\Users\Maximilian\Desktop\Conformers\converted_pdb\conformers_pdb\Luteolin_conf_17.pdb
REMARK  11 active torsions:
REMARK  status: ('A' for Active; 'I' for Inactive)
REMARK    1  A    between atoms: C18_3  and  O2_12
REMARK    2  A    between atoms: C23_8  and  O8_28
REMARK    3  A    between atoms: C25_10  and  C27_30
REMARK    4  A    between atoms: O2_12  and  C16_13
REMARK    5  A    between atoms: C14_14  and  O5_19
REMARK    6  A    between atoms: C12_15  and  O3_21
REMARK    7  A    between atoms: C13_16  and  O4_23
REMARK    8  A    between atoms: C15_17  and  C17_25
REMARK    9  A    between atoms: C17_25  and  O6_26
REMARK   10  A    between atoms: C30_32  and  O10_36
REMARK   11  A    between atoms: C32_33  and  O11_38
REMARK                            x       y       z     vdW  Elec       q    Type
REMARK                         _______ _______ _______ _____ _____    ______ ____
ROOT
ATOM      1  O7  UNK     0       2.167   0.311   0.380  0.00  0.00    +0.000 OA
ATOM      2  O9  UNK     0       3.711   2.771   3.138  0.00  0.00    +0.000 OA
ATOM      3  C18 UNK     0      -0.891   0.932   2.247  0.00  0.00    +0.000 A 
ATOM      4  C19 UNK     0       0.001   0.431   1.284  0.00  0.00    +0.000 A 
ATOM      5  C20 UNK     0      -0.408   1.773   3.253  0.00  0.00    +0.000 A 
ATOM      6  C21 UNK     0       1.351   0.789   1.313  0.00  0.00    +0.000 A 
ATOM      7  C22 UNK     0       1.838   1.653   2.321  0.00  0.00    +0.000 A 
ATOM      8  C23 UNK     0       0.945   2.139   3.302  0.00  0.00    +0.000 A 
ATOM      9  C24 UNK     0       3.205   1.994   2.283  0.00  0.00    +0.000 A 
ATOM     10  C25 UNK     0       3.464   0.606   0.319  0.00  0.00    +0.000 A 
ATOM     11  C26 UNK     0       4.018   1.474   1.276  0.00  0.00    +0.000 A 
ENDROOT
BRANCH  10  12
ATOM     12  C27 UNK     0       4.275   0.018  -0.781  0.00  0.00    +0.000 A 
ATOM     13  C28 UNK     0       3.628  -0.451  -1.940  0.00  0.00    +0.000 A 
ATOM     14  C30 UNK     0       4.357  -1.004  -2.996  0.00  0.00    +0.000 A 
ATOM     15  C32 UNK     0       5.754  -1.102  -2.905  0.00  0.00    +0.000 A 
ATOM     16  C31 UNK     0       6.407  -0.654  -1.751  0.00  0.00    +0.000 A 
ATOM     17  C29 UNK     0       5.676  -0.107  -0.694  0.00  0.00    +0.000 A 
BRANCH  14  18
ATOM     18  O10 UNK     0       3.676  -1.449  -4.129  0.00  0.00    +0.000 OA
ATOM     19  H51 UNK     0       4.158  -1.848  -4.925  0.00  0.00    +0.000 HD
ENDBRANCH  14  18
BRANCH  15  20
ATOM     20  O11 UNK     0       6.487  -1.644  -3.957  0.00  0.00    +0.000 OA
ATOM     21  H52 UNK     0       7.498  -1.718  -3.920  0.00  0.00    +0.000 HD
ENDBRANCH  15  20
ENDBRANCH  10  12
BRANCH   8  22
ATOM     22  O8  UNK     0       1.390   2.981   4.322  0.00  0.00    +0.000 OA
ATOM     23  H47 UNK     0       0.762   3.328   5.038  0.00  0.00    +0.000 HD
ENDBRANCH   8  22
BRANCH   3  24
ATOM     24  O2  UNK     0      -2.261   0.624   2.240  0.00  0.00    +0.000 OA
BRANCH  24  25
ATOM     25  C16 UNK     0      -2.915  -0.150   1.235  0.00  0.00    +0.000 C 
ATOM     26  C14 UNK     0      -4.393  -0.314   1.613  0.00  0.00    +0.000 C 
ATOM     27  C12 UNK     0      -5.121  -1.101   0.504  0.00  0.00    +0.000 C 
ATOM     28  C13 UNK     0      -4.835  -0.490  -0.880  0.00  0.00    +0.000 C 
ATOM     29  C15 UNK     0      -3.314  -0.286  -1.054  0.00  0.00    +0.000 C 
ATOM     30  O1  UNK     0      -2.807   0.522  -0.006  0.00  0.00    +0.000 OA
BRANCH  26  31
ATOM     31  O5  UNK     0      -4.486  -1.000   2.833  0.00  0.00    +0.000 OA
ATOM     32  H42 UNK     0      -5.395  -0.830   3.191  0.00  0.00    +0.000 HD
ENDBRANCH  26  31
BRANCH  27  33
ATOM     33  O3  UNK     0      -6.504  -1.156   0.748  0.00  0.00    +0.000 OA
ATOM     34  H40 UNK     0      -6.843  -0.225   0.764  0.00  0.00    +0.000 HD
ENDBRANCH  27  33
BRANCH  28  35
ATOM     35  O4  UNK     0      -5.314  -1.354  -1.879  0.00  0.00    +0.000 OA
ATOM     36  H41 UNK     0      -6.253  -1.093  -2.063  0.00  0.00    +0.000 HD
ENDBRANCH  28  35
BRANCH  29  37
ATOM     37  C17 UNK     0      -3.005   0.405  -2.389  0.00  0.00    +0.000 C 
BRANCH  37  38
ATOM     38  O6  UNK     0      -1.624   0.602  -2.530  0.00  0.00    +0.000 OA
ATOM     39  H43 UNK     0      -1.233  -0.280  -2.766  0.00  0.00    +0.000 HD
ENDBRANCH  37  38
ENDBRANCH  29  37
ENDBRANCH  24  25
ENDBRANCH   3  24
TORSDOF 11
