REMARK  Name = C:\Users\Maximilian\Desktop\Conformers\converted_pdb\conformers_pdb\Luteolin_conf_7.pdb
REMARK  11 active torsions:
REMARK  status: ('A' for Active; 'I' for Inactive)
REMARK    1  A    between atoms: C18_3  and  O2_12
REMARK    2  A    between atoms: C23_8  and  O8_28
REMARK    3  A    between atoms: C25_10  and  C27_30
REMARK    4  A    between atoms: O2_12  and  C16_13
REMARK    5  A    between atoms: C14_14  and  O5_19
REMARK    6  A    between atoms: C12_15  and  O3_21
REMARK    7  A    between atoms: C13_16  and  O4_23
REMARK    8  A    between atoms: C15_17  and  C17_25
REMARK    9  A    between atoms: C17_25  and  O6_26
REMARK   10  A    between atoms: C30_32  and  O10_36
REMARK   11  A    between atoms: C32_33  and  O11_38
REMARK                            x       y       z     vdW  Elec       q    Type
REMARK                         _______ _______ _______ _____ _____    ______ ____
ROOT
ATOM      1  O7  UNK     0       2.897  -0.019   0.260  0.00  0.00    +0.000 OA
ATOM      2  O9  UNK     0       2.314  -3.937  -0.337  0.00  0.00    +0.000 OA
ATOM      3  C18 UNK     0      -0.728  -0.005   0.479  0.00  0.00    +0.000 A 
ATOM      4  C19 UNK     0       0.598   0.432   0.468  0.00  0.00    +0.000 A 
ATOM      5  C20 UNK     0      -1.005  -1.371   0.285  0.00  0.00    +0.000 A 
ATOM      6  C21 UNK     0       1.646  -0.469   0.264  0.00  0.00    +0.000 A 
ATOM      7  C22 UNK     0       1.376  -1.843   0.065  0.00  0.00    +0.000 A 
ATOM      8  C23 UNK     0       0.034  -2.290   0.077  0.00  0.00    +0.000 A 
ATOM      9  C24 UNK     0       2.473  -2.702  -0.143  0.00  0.00    +0.000 A 
ATOM     10  C25 UNK     0       3.956  -0.804   0.077  0.00  0.00    +0.000 A 
ATOM     11  C26 UNK     0       3.767  -2.179  -0.138  0.00  0.00    +0.000 A 
ENDROOT
BRANCH  10  12
ATOM     12  C27 UNK     0       5.309  -0.192   0.092  0.00  0.00    +0.000 A 
ATOM     13  C28 UNK     0       5.459   1.163  -0.252  0.00  0.00    +0.000 A 
ATOM     14  C30 UNK     0       6.719   1.771  -0.239  0.00  0.00    +0.000 A 
ATOM     15  C32 UNK     0       7.851   1.026   0.129  0.00  0.00    +0.000 A 
ATOM     16  C31 UNK     0       7.709  -0.321   0.485  0.00  0.00    +0.000 A 
ATOM     17  C29 UNK     0       6.449  -0.926   0.471  0.00  0.00    +0.000 A 
BRANCH  14  18
ATOM     18  O10 UNK     0       6.827   3.115  -0.595  0.00  0.00    +0.000 OA
ATOM     19  H51 UNK     0       7.715   3.601  -0.602  0.00  0.00    +0.000 HD
ENDBRANCH  14  18
BRANCH  15  20
ATOM     20  O11 UNK     0       9.110   1.626   0.143  0.00  0.00    +0.000 OA
ATOM     21  H52 UNK     0       9.941   1.109   0.405  0.00  0.00    +0.000 HD
ENDBRANCH  15  20
ENDBRANCH  10  12
BRANCH   8  22
ATOM     22  O8  UNK     0      -0.273  -3.638  -0.115  0.00  0.00    +0.000 OA
ATOM     23  H47 UNK     0      -1.230  -3.973  -0.109  0.00  0.00    +0.000 HD
ENDBRANCH   8  22
BRANCH   3  24
ATOM     24  O2  UNK     0      -1.737   0.949   0.688  0.00  0.00    +0.000 OA
BRANCH  24  25
ATOM     25  C16 UNK     0      -3.137   0.670   0.692  0.00  0.00    +0.000 C 
ATOM     26  C14 UNK     0      -3.907   1.955   1.081  0.00  0.00    +0.000 C 
ATOM     27  C12 UNK     0      -5.267   2.038   0.352  0.00  0.00    +0.000 C 
ATOM     28  C13 UNK     0      -5.869   0.633   0.142  0.00  0.00    +0.000 C 
ATOM     29  C15 UNK     0      -4.836  -0.318  -0.553  0.00  0.00    +0.000 C 
ATOM     30  O1  UNK     0      -3.531   0.241  -0.598  0.00  0.00    +0.000 OA
BRANCH  26  31
ATOM     31  O5  UNK     0      -4.118   1.981   2.470  0.00  0.00    +0.000 OA
ATOM     32  H42 UNK     0      -3.238   2.169   2.890  0.00  0.00    +0.000 HD
ENDBRANCH  26  31
BRANCH  27  33
ATOM     33  O3  UNK     0      -5.085   2.666  -0.893  0.00  0.00    +0.000 OA
ATOM     34  H40 UNK     0      -5.983   2.955  -1.205  0.00  0.00    +0.000 HD
ENDBRANCH  27  33
BRANCH  28  35
ATOM     35  O4  UNK     0      -6.241   0.106   1.390  0.00  0.00    +0.000 OA
ATOM     36  H41 UNK     0      -6.850  -0.657   1.208  0.00  0.00    +0.000 HD
ENDBRANCH  28  35
BRANCH  29  37
ATOM     37  C17 UNK     0      -5.262  -0.644  -1.992  0.00  0.00    +0.000 C 
BRANCH  37  38
ATOM     38  O6  UNK     0      -6.480  -1.339  -2.009  0.00  0.00    +0.000 OA
ATOM     39  H43 UNK     0      -6.281  -2.270  -1.726  0.00  0.00    +0.000 HD
ENDBRANCH  37  38
ENDBRANCH  29  37
ENDBRANCH  24  25
ENDBRANCH   3  24
TORSDOF 11
