REMARK  Name = C:\Users\Maximilian\Desktop\Conformers\converted_pdb\conformers_pdb\Luteolin_conf_5.pdb
REMARK  11 active torsions:
REMARK  status: ('A' for Active; 'I' for Inactive)
REMARK    1  A    between atoms: C18_3  and  O2_12
REMARK    2  A    between atoms: C23_8  and  O8_28
REMARK    3  A    between atoms: C25_10  and  C27_30
REMARK    4  A    between atoms: O2_12  and  C16_13
REMARK    5  A    between atoms: C14_14  and  O5_19
REMARK    6  A    between atoms: C12_15  and  O3_21
REMARK    7  A    between atoms: C13_16  and  O4_23
REMARK    8  A    between atoms: C15_17  and  C17_25
REMARK    9  A    between atoms: C17_25  and  O6_26
REMARK   10  A    between atoms: C30_32  and  O10_36
REMARK   11  A    between atoms: C32_33  and  O11_38
REMARK                            x       y       z     vdW  Elec       q    Type
REMARK                         _______ _______ _______ _____ _____    ______ ____
ROOT
ATOM      1  O7  UNK     0       2.314   0.214   0.327  0.00  0.00    +0.000 OA
ATOM      2  O9  UNK     0       2.435   0.356   4.328  0.00  0.00    +0.000 OA
ATOM      3  C18 UNK     0      -1.225   0.835   0.901  0.00  0.00    +0.000 A 
ATOM      4  C19 UNK     0      -0.004   0.603   0.243  0.00  0.00    +0.000 A 
ATOM      5  C20 UNK     0      -1.245   0.910   2.296  0.00  0.00    +0.000 A 
ATOM      6  C21 UNK     0       1.175   0.436   0.975  0.00  0.00    +0.000 A 
ATOM      7  C22 UNK     0       1.154   0.504   2.388  0.00  0.00    +0.000 A 
ATOM      8  C23 UNK     0      -0.072   0.745   3.047  0.00  0.00    +0.000 A 
ATOM      9  C24 UNK     0       2.374   0.320   3.069  0.00  0.00    +0.000 A 
ATOM     10  C25 UNK     0       3.484   0.047   0.939  0.00  0.00    +0.000 A 
ATOM     11  C26 UNK     0       3.541   0.089   2.341  0.00  0.00    +0.000 A 
ENDROOT
BRANCH  10  12
ATOM     12  C27 UNK     0       4.693  -0.197   0.112  0.00  0.00    +0.000 A 
ATOM     13  C28 UNK     0       5.979   0.172   0.553  0.00  0.00    +0.000 A 
ATOM     14  C30 UNK     0       7.104  -0.060  -0.252  0.00  0.00    +0.000 A 
ATOM     15  C32 UNK     0       6.950  -0.660  -1.512  0.00  0.00    +0.000 A 
ATOM     16  C31 UNK     0       5.675  -1.016  -1.959  0.00  0.00    +0.000 A 
ATOM     17  C29 UNK     0       4.555  -0.783  -1.158  0.00  0.00    +0.000 A 
BRANCH  14  18
ATOM     18  O10 UNK     0       8.373   0.307   0.195  0.00  0.00    +0.000 OA
ATOM     19  H51 UNK     0       8.512   0.742   1.100  0.00  0.00    +0.000 HD
ENDBRANCH  14  18
BRANCH  15  20
ATOM     20  O11 UNK     0       8.050  -0.907  -2.333  0.00  0.00    +0.000 OA
ATOM     21  H52 UNK     0       8.994  -0.668  -2.055  0.00  0.00    +0.000 HD
ENDBRANCH  15  20
ENDBRANCH  10  12
BRANCH   8  22
ATOM     22  O8  UNK     0      -0.136   0.822   4.439  0.00  0.00    +0.000 OA
ATOM     23  H47 UNK     0      -1.008   0.995   4.925  0.00  0.00    +0.000 HD
ENDBRANCH   8  22
BRANCH   3  24
ATOM     24  O2  UNK     0      -2.439   1.006   0.216  0.00  0.00    +0.000 OA
BRANCH  24  25
ATOM     25  C16 UNK     0      -2.657   0.787  -1.182  0.00  0.00    +0.000 C 
ATOM     26  C14 UNK     0      -2.605  -0.722  -1.521  0.00  0.00    +0.000 C 
ATOM     27  C12 UNK     0      -3.718  -1.486  -0.769  0.00  0.00    +0.000 C 
ATOM     28  C13 UNK     0      -4.922  -0.574  -0.439  0.00  0.00    +0.000 C 
ATOM     29  C15 UNK     0      -5.040   0.571  -1.480  0.00  0.00    +0.000 C 
ATOM     30  O1  UNK     0      -3.884   1.404  -1.556  0.00  0.00    +0.000 OA
BRANCH  26  31
ATOM     31  O5  UNK     0      -2.767  -0.900  -2.906  0.00  0.00    +0.000 OA
ATOM     32  H42 UNK     0      -1.915  -0.621  -3.334  0.00  0.00    +0.000 HD
ENDBRANCH  26  31
BRANCH  27  33
ATOM     33  O3  UNK     0      -3.214  -2.021   0.429  0.00  0.00    +0.000 OA
ATOM     34  H40 UNK     0      -2.677  -2.820   0.186  0.00  0.00    +0.000 HD
ENDBRANCH  27  33
BRANCH  28  35
ATOM     35  O4  UNK     0      -6.099  -1.341  -0.423  0.00  0.00    +0.000 OA
ATOM     36  H41 UNK     0      -6.085  -1.871   0.417  0.00  0.00    +0.000 HD
ENDBRANCH  28  35
BRANCH  29  37
ATOM     37  C17 UNK     0      -6.246   1.481  -1.179  0.00  0.00    +0.000 C 
BRANCH  37  38
ATOM     38  O6  UNK     0      -7.459   0.806  -1.377  0.00  0.00    +0.000 OA
ATOM     39  H43 UNK     0      -7.592   0.740  -2.359  0.00  0.00    +0.000 HD
ENDBRANCH  37  38
ENDBRANCH  29  37
ENDBRANCH  24  25
ENDBRANCH   3  24
TORSDOF 11
