REMARK  Name = C:\Users\Maximilian\Desktop\Conformers\converted_pdb\conformers_pdb\Luteolin_conf_14.pdb
REMARK  11 active torsions:
REMARK  status: ('A' for Active; 'I' for Inactive)
REMARK    1  A    between atoms: C18_3  and  O2_12
REMARK    2  A    between atoms: C23_8  and  O8_28
REMARK    3  A    between atoms: C25_10  and  C27_30
REMARK    4  A    between atoms: O2_12  and  C16_13
REMARK    5  A    between atoms: C14_14  and  O5_19
REMARK    6  A    between atoms: C12_15  and  O3_21
REMARK    7  A    between atoms: C13_16  and  O4_23
REMARK    8  A    between atoms: C15_17  and  C17_25
REMARK    9  A    between atoms: C17_25  and  O6_26
REMARK   10  A    between atoms: C30_32  and  O10_36
REMARK   11  A    between atoms: C32_33  and  O11_38
REMARK                            x       y       z     vdW  Elec       q    Type
REMARK                         _______ _______ _______ _____ _____    ______ ____
ROOT
ATOM      1  O7  UNK     0       2.303  -0.393  -0.012  0.00  0.00    +0.000 OA
ATOM      2  O9  UNK     0       3.469  -4.191   0.502  0.00  0.00    +0.000 OA
ATOM      3  C18 UNK     0      -0.920  -1.764   0.974  0.00  0.00    +0.000 A 
ATOM      4  C19 UNK     0       0.073  -0.851   0.579  0.00  0.00    +0.000 A 
ATOM      5  C20 UNK     0      -0.573  -3.103   1.173  0.00  0.00    +0.000 A 
ATOM      6  C21 UNK     0       1.387  -1.278   0.370  0.00  0.00    +0.000 A 
ATOM      7  C22 UNK     0       1.736  -2.635   0.562  0.00  0.00    +0.000 A 
ATOM      8  C23 UNK     0       0.740  -3.551   0.971  0.00  0.00    +0.000 A 
ATOM      9  C24 UNK     0       3.078  -3.003   0.341  0.00  0.00    +0.000 A 
ATOM     10  C25 UNK     0       3.576  -0.709  -0.239  0.00  0.00    +0.000 A 
ATOM     11  C26 UNK     0       4.001  -2.035  -0.059  0.00  0.00    +0.000 A 
ENDROOT
BRANCH  10  12
ATOM     12  C27 UNK     0       4.512   0.363  -0.663  0.00  0.00    +0.000 A 
ATOM     13  C28 UNK     0       5.648   0.088  -1.446  0.00  0.00    +0.000 A 
ATOM     14  C30 UNK     0       6.515   1.113  -1.847  0.00  0.00    +0.000 A 
ATOM     15  C32 UNK     0       6.243   2.446  -1.461  0.00  0.00    +0.000 A 
ATOM     16  C31 UNK     0       5.106   2.721  -0.695  0.00  0.00    +0.000 A 
ATOM     17  C29 UNK     0       4.246   1.694  -0.303  0.00  0.00    +0.000 A 
BRANCH  14  18
ATOM     18  O10 UNK     0       7.621   0.764  -2.625  0.00  0.00    +0.000 OA
ATOM     19  H51 UNK     0       8.299   1.427  -2.972  0.00  0.00    +0.000 HD
ENDBRANCH  14  18
BRANCH  15  20
ATOM     20  O11 UNK     0       7.065   3.518  -1.815  0.00  0.00    +0.000 OA
ATOM     21  H52 UNK     0       7.912   3.425  -2.357  0.00  0.00    +0.000 HD
ENDBRANCH  15  20
ENDBRANCH  10  12
BRANCH   8  22
ATOM     22  O8  UNK     0       1.044  -4.897   1.176  0.00  0.00    +0.000 OA
ATOM     23  H47 UNK     0       0.339  -5.564   1.469  0.00  0.00    +0.000 HD
ENDBRANCH   8  22
BRANCH   3  24
ATOM     24  O2  UNK     0      -2.257  -1.392   1.196  0.00  0.00    +0.000 OA
BRANCH  24  25
ATOM     25  C16 UNK     0      -2.864  -0.149   0.834  0.00  0.00    +0.000 C 
ATOM     26  C14 UNK     0      -3.134  -0.122  -0.695  0.00  0.00    +0.000 C 
ATOM     27  C12 UNK     0      -4.471   0.584  -1.034  0.00  0.00    +0.000 C 
ATOM     28  C13 UNK     0      -4.791   1.727  -0.043  0.00  0.00    +0.000 C 
ATOM     29  C15 UNK     0      -4.602   1.276   1.441  0.00  0.00    +0.000 C 
ATOM     30  O1  UNK     0      -4.080  -0.039   1.548  0.00  0.00    +0.000 OA
BRANCH  26  31
ATOM     31  O5  UNK     0      -2.086   0.555  -1.345  0.00  0.00    +0.000 OA
ATOM     32  H42 UNK     0      -1.477  -0.133  -1.723  0.00  0.00    +0.000 HD
ENDBRANCH  26  31
BRANCH  27  33
ATOM     33  O3  UNK     0      -5.539  -0.333  -1.098  0.00  0.00    +0.000 OA
ATOM     34  H40 UNK     0      -5.548  -0.864  -0.261  0.00  0.00    +0.000 HD
ENDBRANCH  27  33
BRANCH  28  35
ATOM     35  O4  UNK     0      -3.941   2.818  -0.297  0.00  0.00    +0.000 OA
ATOM     36  H41 UNK     0      -4.283   3.271  -1.112  0.00  0.00    +0.000 HD
ENDBRANCH  28  35
BRANCH  29  37
ATOM     37  C17 UNK     0      -5.918   1.347   2.227  0.00  0.00    +0.000 C 
BRANCH  37  38
ATOM     38  O6  UNK     0      -6.852   0.444   1.700  0.00  0.00    +0.000 OA
ATOM     39  H43 UNK     0      -7.674   0.549   2.246  0.00  0.00    +0.000 HD
ENDBRANCH  37  38
ENDBRANCH  29  37
ENDBRANCH  24  25
ENDBRANCH   3  24
TORSDOF 11
