REMARK  Name = C:\Users\Maximilian\Desktop\Conformers\converted_pdb\conformers_pdb\Luteolin_conf_10.pdb
REMARK  11 active torsions:
REMARK  status: ('A' for Active; 'I' for Inactive)
REMARK    1  A    between atoms: C18_3  and  O2_12
REMARK    2  A    between atoms: C23_8  and  O8_28
REMARK    3  A    between atoms: C25_10  and  C27_30
REMARK    4  A    between atoms: O2_12  and  C16_13
REMARK    5  A    between atoms: C14_14  and  O5_19
REMARK    6  A    between atoms: C12_15  and  O3_21
REMARK    7  A    between atoms: C13_16  and  O4_23
REMARK    8  A    between atoms: C15_17  and  C17_25
REMARK    9  A    between atoms: C17_25  and  O6_26
REMARK   10  A    between atoms: C30_32  and  O10_36
REMARK   11  A    between atoms: C32_33  and  O11_38
REMARK                            x       y       z     vdW  Elec       q    Type
REMARK                         _______ _______ _______ _____ _____    ______ ____
ROOT
ATOM      1  O7  UNK     0       2.914  -0.096  -0.359  0.00  0.00    +0.000 OA
ATOM      2  O9  UNK     0       2.492  -1.672  -4.010  0.00  0.00    +0.000 OA
ATOM      3  C18 UNK     0      -0.690   0.235  -0.558  0.00  0.00    +0.000 A 
ATOM      4  C19 UNK     0       0.619   0.284  -0.081  0.00  0.00    +0.000 A 
ATOM      5  C20 UNK     0      -0.922  -0.217  -1.869  0.00  0.00    +0.000 A 
ATOM      6  C21 UNK     0       1.688  -0.145  -0.870  0.00  0.00    +0.000 A 
ATOM      7  C22 UNK     0       1.466  -0.629  -2.184  0.00  0.00    +0.000 A 
ATOM      8  C23 UNK     0       0.135  -0.619  -2.695  0.00  0.00    +0.000 A 
ATOM      9  C24 UNK     0       2.594  -1.123  -2.882  0.00  0.00    +0.000 A 
ATOM     10  C25 UNK     0       3.997  -0.500  -1.015  0.00  0.00    +0.000 A 
ATOM     11  C26 UNK     0       3.859  -1.042  -2.300  0.00  0.00    +0.000 A 
ENDROOT
BRANCH  10  12
ATOM     12  C27 UNK     0       5.320  -0.389  -0.348  0.00  0.00    +0.000 A 
ATOM     13  C28 UNK     0       5.389  -0.389   1.056  0.00  0.00    +0.000 A 
ATOM     14  C30 UNK     0       6.620  -0.276   1.713  0.00  0.00    +0.000 A 
ATOM     15  C32 UNK     0       7.802  -0.152   0.966  0.00  0.00    +0.000 A 
ATOM     16  C31 UNK     0       7.740  -0.137  -0.433  0.00  0.00    +0.000 A 
ATOM     17  C29 UNK     0       6.510  -0.250  -1.087  0.00  0.00    +0.000 A 
BRANCH  14  18
ATOM     18  O10 UNK     0       6.647  -0.291   3.107  0.00  0.00    +0.000 OA
ATOM     19  H51 UNK     0       7.511  -0.212   3.630  0.00  0.00    +0.000 HD
ENDBRANCH  14  18
BRANCH  15  20
ATOM     20  O11 UNK     0       9.031  -0.040   1.614  0.00  0.00    +0.000 OA
ATOM     21  H52 UNK     0       9.898   0.052   1.097  0.00  0.00    +0.000 HD
ENDBRANCH  15  20
ENDBRANCH  10  12
BRANCH   8  22
ATOM     22  O8  UNK     0      -0.198  -0.969  -4.008  0.00  0.00    +0.000 OA
ATOM     23  H47 UNK     0       0.455  -1.012  -4.775  0.00  0.00    +0.000 HD
ENDBRANCH   8  22
BRANCH   3  24
ATOM     24  O2  UNK     0      -1.716   0.665   0.302  0.00  0.00    +0.000 OA
BRANCH  24  25
ATOM     25  C16 UNK     0      -3.124   0.573   0.068  0.00  0.00    +0.000 C 
ATOM     26  C14 UNK     0      -3.621  -0.845   0.424  0.00  0.00    +0.000 C 
ATOM     27  C12 UNK     0      -5.152  -0.911   0.255  0.00  0.00    +0.000 C 
ATOM     28  C13 UNK     0      -5.830   0.252   1.008  0.00  0.00    +0.000 C 
ATOM     29  C15 UNK     0      -5.150   1.595   0.632  0.00  0.00    +0.000 C 
ATOM     30  O1  UNK     0      -3.759   1.524   0.905  0.00  0.00    +0.000 OA
BRANCH  26  31
ATOM     31  O5  UNK     0      -3.012  -1.795  -0.411  0.00  0.00    +0.000 OA
ATOM     32  H42 UNK     0      -3.079  -2.671   0.051  0.00  0.00    +0.000 HD
ENDBRANCH  26  31
BRANCH  27  33
ATOM     33  O3  UNK     0      -5.656  -2.149   0.689  0.00  0.00    +0.000 OA
ATOM     34  H40 UNK     0      -5.435  -2.245   1.652  0.00  0.00    +0.000 HD
ENDBRANCH  27  33
BRANCH  28  35
ATOM     35  O4  UNK     0      -7.210   0.275   0.733  0.00  0.00    +0.000 OA
ATOM     36  H41 UNK     0      -7.320   0.450  -0.238  0.00  0.00    +0.000 HD
ENDBRANCH  28  35
BRANCH  29  37
ATOM     37  C17 UNK     0      -5.731   2.763   1.440  0.00  0.00    +0.000 C 
BRANCH  37  38
ATOM     38  O6  UNK     0      -7.051   3.021   1.048  0.00  0.00    +0.000 OA
ATOM     39  H43 UNK     0      -7.365   3.772   1.616  0.00  0.00    +0.000 HD
ENDBRANCH  37  38
ENDBRANCH  29  37
ENDBRANCH  24  25
ENDBRANCH   3  24
TORSDOF 11
