REMARK  Name = C:\Users\Maximilian\Desktop\Conformers\converted_pdb\conformers_pdb\Luteolin_conf_34.pdb
REMARK  11 active torsions:
REMARK  status: ('A' for Active; 'I' for Inactive)
REMARK    1  A    between atoms: C18_3  and  O2_12
REMARK    2  A    between atoms: C23_8  and  O8_28
REMARK    3  A    between atoms: C25_10  and  C27_30
REMARK    4  A    between atoms: O2_12  and  C16_13
REMARK    5  A    between atoms: C14_14  and  O5_19
REMARK    6  A    between atoms: C12_15  and  O3_21
REMARK    7  A    between atoms: C13_16  and  O4_23
REMARK    8  A    between atoms: C15_17  and  C17_25
REMARK    9  A    between atoms: C17_25  and  O6_26
REMARK   10  A    between atoms: C30_32  and  O10_36
REMARK   11  A    between atoms: C32_33  and  O11_38
REMARK                            x       y       z     vdW  Elec       q    Type
REMARK                         _______ _______ _______ _____ _____    ______ ____
ROOT
ATOM      1  O7  UNK     0       2.266  -0.348  -0.328  0.00  0.00    +0.000 OA
ATOM      2  O9  UNK     0       3.246  -2.232  -3.724  0.00  0.00    +0.000 OA
ATOM      3  C18 UNK     0      -1.085  -1.384  -1.295  0.00  0.00    +0.000 A 
ATOM      4  C19 UNK     0      -0.026  -0.814  -0.566  0.00  0.00    +0.000 A 
ATOM      5  C20 UNK     0      -0.805  -2.058  -2.487  0.00  0.00    +0.000 A 
ATOM      6  C21 UNK     0       1.287  -0.904  -1.035  0.00  0.00    +0.000 A 
ATOM      7  C22 UNK     0       1.569  -1.578  -2.245  0.00  0.00    +0.000 A 
ATOM      8  C23 UNK     0       0.506  -2.161  -2.972  0.00  0.00    +0.000 A 
ATOM      9  C24 UNK     0       2.914  -1.640  -2.662  0.00  0.00    +0.000 A 
ATOM     10  C25 UNK     0       3.544  -0.379  -0.697  0.00  0.00    +0.000 A 
ATOM     11  C26 UNK     0       3.904  -1.039  -1.884  0.00  0.00    +0.000 A 
ENDROOT
BRANCH  10  12
ATOM     12  C27 UNK     0       4.554   0.277   0.172  0.00  0.00    +0.000 A 
ATOM     13  C28 UNK     0       5.757   0.794  -0.349  0.00  0.00    +0.000 A 
ATOM     14  C30 UNK     0       6.689   1.418   0.493  0.00  0.00    +0.000 A 
ATOM     15  C32 UNK     0       6.425   1.537   1.862  0.00  0.00    +0.000 A 
ATOM     16  C31 UNK     0       5.226   1.038   2.385  0.00  0.00    +0.000 A 
ATOM     17  C29 UNK     0       4.296   0.418   1.547  0.00  0.00    +0.000 A 
BRANCH  14  18
ATOM     18  O10 UNK     0       7.879   1.926  -0.026  0.00  0.00    +0.000 OA
ATOM     19  H51 UNK     0       8.100   1.857  -1.013  0.00  0.00    +0.000 HD
ENDBRANCH  14  18
BRANCH  15  20
ATOM     20  O11 UNK     0       7.355   2.155   2.695  0.00  0.00    +0.000 OA
ATOM     21  H52 UNK     0       7.191   2.257   3.690  0.00  0.00    +0.000 HD
ENDBRANCH  15  20
ENDBRANCH  10  12
BRANCH   8  22
ATOM     22  O8  UNK     0       0.742  -2.838  -4.169  0.00  0.00    +0.000 OA
ATOM     23  H47 UNK     0      -0.011  -3.260  -4.700  0.00  0.00    +0.000 HD
ENDBRANCH   8  22
BRANCH   3  24
ATOM     24  O2  UNK     0      -2.425  -1.322  -0.874  0.00  0.00    +0.000 OA
BRANCH  24  25
ATOM     25  C16 UNK     0      -2.947  -0.501   0.173  0.00  0.00    +0.000 C 
ATOM     26  C14 UNK     0      -3.048   0.971  -0.312  0.00  0.00    +0.000 C 
ATOM     27  C12 UNK     0      -4.343   1.655   0.192  0.00  0.00    +0.000 C 
ATOM     28  C13 UNK     0      -4.738   1.167   1.602  0.00  0.00    +0.000 C 
ATOM     29  C15 UNK     0      -4.697  -0.394   1.706  0.00  0.00    +0.000 C 
ATOM     30  O1  UNK     0      -4.230  -0.996   0.508  0.00  0.00    +0.000 OA
BRANCH  26  31
ATOM     31  O5  UNK     0      -1.936   1.702   0.141  0.00  0.00    +0.000 OA
ATOM     32  H42 UNK     0      -1.290   1.760  -0.611  0.00  0.00    +0.000 HD
ENDBRANCH  26  31
BRANCH  27  33
ATOM     33  O3  UNK     0      -5.401   1.379  -0.692  0.00  0.00    +0.000 OA
ATOM     34  H40 UNK     0      -5.287   1.978  -1.476  0.00  0.00    +0.000 HD
ENDBRANCH  27  33
BRANCH  28  35
ATOM     35  O4  UNK     0      -3.924   1.762   2.584  0.00  0.00    +0.000 OA
ATOM     36  H41 UNK     0      -3.002   1.413   2.472  0.00  0.00    +0.000 HD
ENDBRANCH  28  35
BRANCH  29  37
ATOM     37  C17 UNK     0      -6.080  -0.974   2.039  0.00  0.00    +0.000 C 
BRANCH  37  38
ATOM     38  O6  UNK     0      -7.009  -0.678   1.029  0.00  0.00    +0.000 OA
ATOM     39  H43 UNK     0      -6.849  -1.325   0.294  0.00  0.00    +0.000 HD
ENDBRANCH  37  38
ENDBRANCH  29  37
ENDBRANCH  24  25
ENDBRANCH   3  24
TORSDOF 11
