REMARK  Name = C:\Users\Maximilian\Desktop\Conformers\converted_pdb\conformers_pdb\Luteolin_conf_8.pdb
REMARK  11 active torsions:
REMARK  status: ('A' for Active; 'I' for Inactive)
REMARK    1  A    between atoms: C18_3  and  O2_12
REMARK    2  A    between atoms: C23_8  and  O8_28
REMARK    3  A    between atoms: C25_10  and  C27_30
REMARK    4  A    between atoms: O2_12  and  C16_13
REMARK    5  A    between atoms: C14_14  and  O5_19
REMARK    6  A    between atoms: C12_15  and  O3_21
REMARK    7  A    between atoms: C13_16  and  O4_23
REMARK    8  A    between atoms: C15_17  and  C17_25
REMARK    9  A    between atoms: C17_25  and  O6_26
REMARK   10  A    between atoms: C30_32  and  O10_36
REMARK   11  A    between atoms: C32_33  and  O11_38
REMARK                            x       y       z     vdW  Elec       q    Type
REMARK                         _______ _______ _______ _____ _____    ______ ____
ROOT
ATOM      1  O7  UNK     0       2.822  -0.276   0.190  0.00  0.00    +0.000 OA
ATOM      2  O9  UNK     0       2.764  -3.906  -1.487  0.00  0.00    +0.000 OA
ATOM      3  C18 UNK     0      -0.655  -0.203  -0.815  0.00  0.00    +0.000 A 
ATOM      4  C19 UNK     0       0.576   0.172  -0.282  0.00  0.00    +0.000 A 
ATOM      5  C20 UNK     0      -0.780  -1.460  -1.425  0.00  0.00    +0.000 A 
ATOM      6  C21 UNK     0       1.675  -0.686  -0.340  0.00  0.00    +0.000 A 
ATOM      7  C22 UNK     0       1.565  -1.965  -0.949  0.00  0.00    +0.000 A 
ATOM      8  C23 UNK     0       0.301  -2.348  -1.494  0.00  0.00    +0.000 A 
ATOM      9  C24 UNK     0       2.737  -2.762  -0.966  0.00  0.00    +0.000 A 
ATOM     10  C25 UNK     0       3.933  -1.005   0.190  0.00  0.00    +0.000 A 
ATOM     11  C26 UNK     0       3.914  -2.281  -0.390  0.00  0.00    +0.000 A 
ENDROOT
BRANCH  10  12
ATOM     12  C27 UNK     0       5.155  -0.444   0.821  0.00  0.00    +0.000 A 
ATOM     13  C28 UNK     0       5.028   0.541   1.818  0.00  0.00    +0.000 A 
ATOM     14  C30 UNK     0       6.163   1.091   2.431  0.00  0.00    +0.000 A 
ATOM     15  C32 UNK     0       7.439   0.665   2.045  0.00  0.00    +0.000 A 
ATOM     16  C31 UNK     0       7.577  -0.304   1.044  0.00  0.00    +0.000 A 
ATOM     17  C29 UNK     0       6.447  -0.852   0.432  0.00  0.00    +0.000 A 
BRANCH  14  18
ATOM     18  O10 UNK     0       6.028   2.060   3.424  0.00  0.00    +0.000 OA
ATOM     19  H51 UNK     0       5.118   2.391   3.722  0.00  0.00    +0.000 HD
ENDBRANCH  14  18
BRANCH  15  20
ATOM     20  O11 UNK     0       8.565   1.212   2.659  0.00  0.00    +0.000 OA
ATOM     21  H52 UNK     0       9.502   0.922   2.402  0.00  0.00    +0.000 HD
ENDBRANCH  15  20
ENDBRANCH  10  12
BRANCH   8  22
ATOM     22  O8  UNK     0       0.041  -3.579  -2.108  0.00  0.00    +0.000 OA
ATOM     23  H47 UNK     0       0.683  -4.349  -2.198  0.00  0.00    +0.000 HD
ENDBRANCH   8  22
BRANCH   3  24
ATOM     24  O2  UNK     0      -1.721   0.707  -0.713  0.00  0.00    +0.000 OA
BRANCH  24  25
ATOM     25  C16 UNK     0      -3.083   0.455  -1.070  0.00  0.00    +0.000 C 
ATOM     26  C14 UNK     0      -3.730  -0.511  -0.024  0.00  0.00    +0.000 C 
ATOM     27  C12 UNK     0      -4.604   0.277   0.970  0.00  0.00    +0.000 C 
ATOM     28  C13 UNK     0      -5.669   1.115   0.220  0.00  0.00    +0.000 C 
ATOM     29  C15 UNK     0      -5.147   1.554  -1.174  0.00  0.00    +0.000 C 
ATOM     30  O1  UNK     0      -3.741   1.714  -1.139  0.00  0.00    +0.000 OA
BRANCH  26  31
ATOM     31  O5  UNK     0      -4.532  -1.465  -0.675  0.00  0.00    +0.000 OA
ATOM     32  H42 UNK     0      -3.921  -2.152  -1.047  0.00  0.00    +0.000 HD
ENDBRANCH  26  31
BRANCH  27  33
ATOM     33  O3  UNK     0      -3.794   1.136   1.734  0.00  0.00    +0.000 OA
ATOM     34  H40 UNK     0      -3.319   0.570   2.398  0.00  0.00    +0.000 HD
ENDBRANCH  27  33
BRANCH  28  35
ATOM     35  O4  UNK     0      -6.846   0.365   0.050  0.00  0.00    +0.000 OA
ATOM     36  H41 UNK     0      -7.310   0.353   0.927  0.00  0.00    +0.000 HD
ENDBRANCH  28  35
BRANCH  29  37
ATOM     37  C17 UNK     0      -5.794   2.865  -1.639  0.00  0.00    +0.000 C 
BRANCH  37  38
ATOM     38  O6  UNK     0      -5.363   3.944  -0.850  0.00  0.00    +0.000 OA
ATOM     39  H43 UNK     0      -6.099   4.160  -0.219  0.00  0.00    +0.000 HD
ENDBRANCH  37  38
ENDBRANCH  29  37
ENDBRANCH  24  25
ENDBRANCH   3  24
TORSDOF 11
