REMARK  Name = C:\Users\Maximilian\Desktop\Conformers\converted_pdb\conformers_pdb\Luteolin_conf_37.pdb
REMARK  11 active torsions:
REMARK  status: ('A' for Active; 'I' for Inactive)
REMARK    1  A    between atoms: C18_3  and  O2_12
REMARK    2  A    between atoms: C23_8  and  O8_28
REMARK    3  A    between atoms: C25_10  and  C27_30
REMARK    4  A    between atoms: O2_12  and  C16_13
REMARK    5  A    between atoms: C14_14  and  O5_19
REMARK    6  A    between atoms: C12_15  and  O3_21
REMARK    7  A    between atoms: C13_16  and  O4_23
REMARK    8  A    between atoms: C15_17  and  C17_25
REMARK    9  A    between atoms: C17_25  and  O6_26
REMARK   10  A    between atoms: C30_32  and  O10_36
REMARK   11  A    between atoms: C32_33  and  O11_38
REMARK                            x       y       z     vdW  Elec       q    Type
REMARK                         _______ _______ _______ _____ _____    ______ ____
ROOT
ATOM      1  O7  UNK     0       2.867  -0.125  -0.020  0.00  0.00    +0.000 OA
ATOM      2  O9  UNK     0       2.486  -2.932  -2.853  0.00  0.00    +0.000 OA
ATOM      3  C18 UNK     0      -0.731  -0.565   0.219  0.00  0.00    +0.000 A 
ATOM      4  C19 UNK     0       0.563  -0.094   0.453  0.00  0.00    +0.000 A 
ATOM      5  C20 UNK     0      -0.935  -1.559  -0.756  0.00  0.00    +0.000 A 
ATOM      6  C21 UNK     0       1.649  -0.596  -0.269  0.00  0.00    +0.000 A 
ATOM      7  C22 UNK     0       1.450  -1.592  -1.253  0.00  0.00    +0.000 A 
ATOM      8  C23 UNK     0       0.142  -2.073  -1.492  0.00  0.00    +0.000 A 
ATOM      9  C24 UNK     0       2.582  -2.053  -1.955  0.00  0.00    +0.000 A 
ATOM     10  C25 UNK     0       3.958  -0.545  -0.657  0.00  0.00    +0.000 A 
ATOM     11  C26 UNK     0       3.839  -1.525  -1.656  0.00  0.00    +0.000 A 
ENDROOT
BRANCH  10  12
ATOM     12  C27 UNK     0       5.269   0.053  -0.297  0.00  0.00    +0.000 A 
ATOM     13  C28 UNK     0       5.312   1.349   0.249  0.00  0.00    +0.000 A 
ATOM     14  C30 UNK     0       6.534   1.936   0.606  0.00  0.00    +0.000 A 
ATOM     15  C32 UNK     0       7.730   1.223   0.426  0.00  0.00    +0.000 A 
ATOM     16  C31 UNK     0       7.693  -0.070  -0.103  0.00  0.00    +0.000 A 
ATOM     17  C29 UNK     0       6.475  -0.655  -0.460  0.00  0.00    +0.000 A 
BRANCH  14  18
ATOM     18  O10 UNK     0       6.563   3.225   1.137  0.00  0.00    +0.000 OA
ATOM     19  H51 UNK     0       5.715   3.761   1.276  0.00  0.00    +0.000 HD
ENDBRANCH  14  18
BRANCH  15  20
ATOM     20  O11 UNK     0       8.962   1.779   0.770  0.00  0.00    +0.000 OA
ATOM     21  H52 UNK     0       9.041   2.711   1.159  0.00  0.00    +0.000 HD
ENDBRANCH  15  20
ENDBRANCH  10  12
BRANCH   8  22
ATOM     22  O8  UNK     0      -0.094  -3.056  -2.455  0.00  0.00    +0.000 OA
ATOM     23  H47 UNK     0      -1.026  -3.409  -2.639  0.00  0.00    +0.000 HD
ENDBRANCH   8  22
BRANCH   3  24
ATOM     24  O2  UNK     0      -1.780  -0.019   0.975  0.00  0.00    +0.000 OA
BRANCH  24  25
ATOM     25  C16 UNK     0      -3.160  -0.353   0.824  0.00  0.00    +0.000 C 
ATOM     26  C14 UNK     0      -3.972   0.357   1.950  0.00  0.00    +0.000 C 
ATOM     27  C12 UNK     0      -4.793   1.529   1.378  0.00  0.00    +0.000 C 
ATOM     28  C13 UNK     0      -5.676   1.061   0.194  0.00  0.00    +0.000 C 
ATOM     29  C15 UNK     0      -4.986  -0.081  -0.598  0.00  0.00    +0.000 C 
ATOM     30  O1  UNK     0      -3.580   0.030  -0.479  0.00  0.00    +0.000 OA
BRANCH  26  31
ATOM     31  O5  UNK     0      -4.846  -0.555   2.566  0.00  0.00    +0.000 OA
ATOM     32  H42 UNK     0      -4.291  -1.127   3.159  0.00  0.00    +0.000 HD
ENDBRANCH  26  31
BRANCH  27  33
ATOM     33  O3  UNK     0      -3.925   2.542   0.934  0.00  0.00    +0.000 OA
ATOM     34  H40 UNK     0      -3.583   3.006   1.743  0.00  0.00    +0.000 HD
ENDBRANCH  27  33
BRANCH  28  35
ATOM     35  O4  UNK     0      -6.918   0.603   0.666  0.00  0.00    +0.000 OA
ATOM     36  H41 UNK     0      -7.458   1.407   0.886  0.00  0.00    +0.000 HD
ENDBRANCH  28  35
BRANCH  29  37
ATOM     37  C17 UNK     0      -5.368  -0.033  -2.083  0.00  0.00    +0.000 C 
BRANCH  37  38
ATOM     38  O6  UNK     0      -4.766  -1.092  -2.777  0.00  0.00    +0.000 OA
ATOM     39  H43 UNK     0      -5.283  -1.910  -2.552  0.00  0.00    +0.000 HD
ENDBRANCH  37  38
ENDBRANCH  29  37
ENDBRANCH  24  25
ENDBRANCH   3  24
TORSDOF 11
