REMARK  Name = C:\Users\Maximilian\Desktop\Conformers\converted_pdb\conformers_pdb\Luteolin_conf_38.pdb
REMARK  11 active torsions:
REMARK  status: ('A' for Active; 'I' for Inactive)
REMARK    1  A    between atoms: C18_3  and  O2_12
REMARK    2  A    between atoms: C23_8  and  O8_28
REMARK    3  A    between atoms: C25_10  and  C27_30
REMARK    4  A    between atoms: O2_12  and  C16_13
REMARK    5  A    between atoms: C14_14  and  O5_19
REMARK    6  A    between atoms: C12_15  and  O3_21
REMARK    7  A    between atoms: C13_16  and  O4_23
REMARK    8  A    between atoms: C15_17  and  C17_25
REMARK    9  A    between atoms: C17_25  and  O6_26
REMARK   10  A    between atoms: C30_32  and  O10_36
REMARK   11  A    between atoms: C32_33  and  O11_38
REMARK                            x       y       z     vdW  Elec       q    Type
REMARK                         _______ _______ _______ _____ _____    ______ ____
ROOT
ATOM      1  O7  UNK     0       2.789   0.143   0.250  0.00  0.00    +0.000 OA
ATOM      2  O9  UNK     0       3.004   2.199  -3.181  0.00  0.00    +0.000 OA
ATOM      3  C18 UNK     0      -0.778   0.615  -0.252  0.00  0.00    +0.000 A 
ATOM      4  C19 UNK     0       0.440   0.219   0.308  0.00  0.00    +0.000 A 
ATOM      5  C20 UNK     0      -0.774   1.351  -1.450  0.00  0.00    +0.000 A 
ATOM      6  C21 UNK     0       1.651   0.538  -0.311  0.00  0.00    +0.000 A 
ATOM      7  C22 UNK     0       1.660   1.273  -1.519  0.00  0.00    +0.000 A 
ATOM      8  C23 UNK     0       0.432   1.680  -2.087  0.00  0.00    +0.000 A 
ATOM      9  C24 UNK     0       2.912   1.558  -2.099  0.00  0.00    +0.000 A 
ATOM     10  C25 UNK     0       3.988   0.405  -0.266  0.00  0.00    +0.000 A 
ATOM     11  C26 UNK     0       4.079   1.121  -1.471  0.00  0.00    +0.000 A 
ENDROOT
BRANCH  10  12
ATOM     12  C27 UNK     0       5.195  -0.087   0.446  0.00  0.00    +0.000 A 
ATOM     13  C28 UNK     0       6.434   0.573   0.345  0.00  0.00    +0.000 A 
ATOM     14  C30 UNK     0       7.560   0.102   1.032  0.00  0.00    +0.000 A 
ATOM     15  C32 UNK     0       7.451  -1.052   1.843  0.00  0.00    +0.000 A 
ATOM     16  C31 UNK     0       6.215  -1.698   1.953  0.00  0.00    +0.000 A 
ATOM     17  C29 UNK     0       5.097  -1.220   1.268  0.00  0.00    +0.000 A 
BRANCH  14  18
ATOM     18  O10 UNK     0       8.756   0.808   0.885  0.00  0.00    +0.000 OA
ATOM     19  H51 UNK     0       9.620   0.558   1.344  0.00  0.00    +0.000 HD
ENDBRANCH  14  18
BRANCH  15  20
ATOM     20  O11 UNK     0       8.531  -1.584   2.550  0.00  0.00    +0.000 OA
ATOM     21  H52 UNK     0       9.464  -1.199   2.530  0.00  0.00    +0.000 HD
ENDBRANCH  15  20
ENDBRANCH  10  12
BRANCH   8  22
ATOM     22  O8  UNK     0       0.400   2.410  -3.276  0.00  0.00    +0.000 OA
ATOM     23  H47 UNK     0      -0.472   2.708  -3.696  0.00  0.00    +0.000 HD
ENDBRANCH   8  22
BRANCH   3  24
ATOM     24  O2  UNK     0      -1.959   0.257   0.420  0.00  0.00    +0.000 OA
BRANCH  24  25
ATOM     25  C16 UNK     0      -3.293   0.471  -0.047  0.00  0.00    +0.000 C 
ATOM     26  C14 UNK     0      -3.610  -0.528  -1.208  0.00  0.00    +0.000 C 
ATOM     27  C12 UNK     0      -4.482  -1.689  -0.704  0.00  0.00    +0.000 C 
ATOM     28  C13 UNK     0      -5.769  -1.156  -0.018  0.00  0.00    +0.000 C 
ATOM     29  C15 UNK     0      -5.510   0.219   0.651  0.00  0.00    +0.000 C 
ATOM     30  O1  UNK     0      -4.161   0.312   1.067  0.00  0.00    +0.000 OA
BRANCH  26  31
ATOM     31  O5  UNK     0      -4.293   0.136  -2.243  0.00  0.00    +0.000 OA
ATOM     32  H42 UNK     0      -3.610   0.606  -2.787  0.00  0.00    +0.000 HD
ENDBRANCH  26  31
BRANCH  27  33
ATOM     33  O3  UNK     0      -3.735  -2.457   0.206  0.00  0.00    +0.000 OA
ATOM     34  H40 UNK     0      -4.184  -3.340   0.274  0.00  0.00    +0.000 HD
ENDBRANCH  27  33
BRANCH  28  35
ATOM     35  O4  UNK     0      -6.798  -1.016  -0.965  0.00  0.00    +0.000 OA
ATOM     36  H41 UNK     0      -7.139  -1.929  -1.157  0.00  0.00    +0.000 HD
ENDBRANCH  28  35
BRANCH  29  37
ATOM     37  C17 UNK     0      -6.428   0.442   1.858  0.00  0.00    +0.000 C 
BRANCH  37  38
ATOM     38  O6  UNK     0      -6.113  -0.457   2.886  0.00  0.00    +0.000 OA
ATOM     39  H43 UNK     0      -6.745  -0.262   3.626  0.00  0.00    +0.000 HD
ENDBRANCH  37  38
ENDBRANCH  29  37
ENDBRANCH  24  25
ENDBRANCH   3  24
TORSDOF 11
