REMARK  Name = C:\Users\Maximilian\Desktop\Conformers\converted_pdb\conformers_pdb\Luteolin_conf_33.pdb
REMARK  11 active torsions:
REMARK  status: ('A' for Active; 'I' for Inactive)
REMARK    1  A    between atoms: C18_3  and  O2_12
REMARK    2  A    between atoms: C23_8  and  O8_28
REMARK    3  A    between atoms: C25_10  and  C27_30
REMARK    4  A    between atoms: O2_12  and  C16_13
REMARK    5  A    between atoms: C14_14  and  O5_19
REMARK    6  A    between atoms: C12_15  and  O3_21
REMARK    7  A    between atoms: C13_16  and  O4_23
REMARK    8  A    between atoms: C15_17  and  C17_25
REMARK    9  A    between atoms: C17_25  and  O6_26
REMARK   10  A    between atoms: C30_32  and  O10_36
REMARK   11  A    between atoms: C32_33  and  O11_38
REMARK                            x       y       z     vdW  Elec       q    Type
REMARK                         _______ _______ _______ _____ _____    ______ ____
ROOT
ATOM      1  O7  UNK     0      -2.159  -1.949  -0.585  0.00  0.00    +0.000 OA
ATOM      2  O9  UNK     0      -4.618   1.003  -1.721  0.00  0.00    +0.000 OA
ATOM      3  C18 UNK     0       0.293   0.730  -0.629  0.00  0.00    +0.000 A 
ATOM      4  C19 UNK     0      -0.284  -0.534  -0.484  0.00  0.00    +0.000 A 
ATOM      5  C20 UNK     0      -0.511   1.810  -1.035  0.00  0.00    +0.000 A 
ATOM      6  C21 UNK     0      -1.644  -0.732  -0.733  0.00  0.00    +0.000 A 
ATOM      7  C22 UNK     0      -2.459   0.350  -1.138  0.00  0.00    +0.000 A 
ATOM      8  C23 UNK     0      -1.879   1.630  -1.288  0.00  0.00    +0.000 A 
ATOM      9  C24 UNK     0      -3.825   0.089  -1.368  0.00  0.00    +0.000 A 
ATOM     10  C25 UNK     0      -3.442  -2.231  -0.804  0.00  0.00    +0.000 A 
ATOM     11  C26 UNK     0      -4.317  -1.206  -1.198  0.00  0.00    +0.000 A 
ENDROOT
BRANCH  10  12
ATOM     12  C27 UNK     0      -3.909  -3.627  -0.606  0.00  0.00    +0.000 A 
ATOM     13  C28 UNK     0      -3.220  -4.468   0.284  0.00  0.00    +0.000 A 
ATOM     14  C30 UNK     0      -3.625  -5.792   0.490  0.00  0.00    +0.000 A 
ATOM     15  C32 UNK     0      -4.741  -6.297  -0.216  0.00  0.00    +0.000 A 
ATOM     16  C31 UNK     0      -5.419  -5.465  -1.113  0.00  0.00    +0.000 A 
ATOM     17  C29 UNK     0      -5.009  -4.145  -1.312  0.00  0.00    +0.000 A 
BRANCH  14  18
ATOM     18  O10 UNK     0      -2.896  -6.564   1.398  0.00  0.00    +0.000 OA
ATOM     19  H51 UNK     0      -3.104  -7.527   1.615  0.00  0.00    +0.000 HD
ENDBRANCH  14  18
BRANCH  15  20
ATOM     20  O11 UNK     0      -5.205  -7.605  -0.062  0.00  0.00    +0.000 OA
ATOM     21  H52 UNK     0      -4.787  -8.283   0.560  0.00  0.00    +0.000 HD
ENDBRANCH  15  20
ENDBRANCH  10  12
BRANCH   8  22
ATOM     22  O8  UNK     0      -2.650   2.723  -1.687  0.00  0.00    +0.000 OA
ATOM     23  H47 UNK     0      -2.249   3.647  -1.799  0.00  0.00    +0.000 HD
ENDBRANCH   8  22
BRANCH   3  24
ATOM     24  O2  UNK     0       1.666   0.863  -0.360  0.00  0.00    +0.000 OA
BRANCH  24  25
ATOM     25  C16 UNK     0       2.413   2.081  -0.398  0.00  0.00    +0.000 C 
ATOM     26  C14 UNK     0       2.033   2.978   0.826  0.00  0.00    +0.000 C 
ATOM     27  C12 UNK     0       3.210   3.142   1.811  0.00  0.00    +0.000 C 
ATOM     28  C13 UNK     0       4.522   3.532   1.081  0.00  0.00    +0.000 C 
ATOM     29  C15 UNK     0       4.589   2.906  -0.337  0.00  0.00    +0.000 C 
ATOM     30  O1  UNK     0       3.790   1.739  -0.396  0.00  0.00    +0.000 OA
BRANCH  26  31
ATOM     31  O5  UNK     0       1.552   4.233   0.410  0.00  0.00    +0.000 OA
ATOM     32  H42 UNK     0       2.251   4.662  -0.146  0.00  0.00    +0.000 HD
ENDBRANCH  26  31
BRANCH  27  33
ATOM     33  O3  UNK     0       3.393   1.927   2.495  0.00  0.00    +0.000 OA
ATOM     34  H40 UNK     0       3.900   2.135   3.323  0.00  0.00    +0.000 HD
ENDBRANCH  27  33
BRANCH  28  35
ATOM     35  O4  UNK     0       4.620   4.930   0.971  0.00  0.00    +0.000 OA
ATOM     36  H41 UNK     0       4.869   5.274   1.869  0.00  0.00    +0.000 HD
ENDBRANCH  28  35
BRANCH  29  37
ATOM     37  C17 UNK     0       6.030   2.543  -0.710  0.00  0.00    +0.000 C 
BRANCH  37  38
ATOM     38  O6  UNK     0       6.070   2.060  -2.024  0.00  0.00    +0.000 OA
ATOM     39  H43 UNK     0       7.020   1.842  -2.209  0.00  0.00    +0.000 HD
ENDBRANCH  37  38
ENDBRANCH  29  37
ENDBRANCH  24  25
ENDBRANCH   3  24
TORSDOF 11
