REMARK  Name = C:\Users\Maximilian\Desktop\Conformers\converted_pdb\conformers_pdb\Madecassic Acid_conf_42.pdb
REMARK  13 active torsions:
REMARK  status: ('A' for Active; 'I' for Inactive)
REMARK    1  A    between atoms: C7_1  and  C21_15
REMARK    2  A    between atoms: C9_3  and  C25_19
REMARK    3  A    between atoms: C10_4  and  C27_21
REMARK    4  A    between atoms: C13_7  and  O1_34
REMARK    5  A    between atoms: C14_8  and  C32_25
REMARK    6  A    between atoms: C14_8  and  C30_29
REMARK    7  A    between atoms: C20_14  and  C34_38
REMARK    8  A    between atoms: C23_17  and  O2_32
REMARK    9  A    between atoms: C24_18  and  O3_36
REMARK   10  A    between atoms: C28_22  and  C35_27
REMARK   11  A    between atoms: C31_24  and  C36_28
REMARK   12  A    between atoms: C30_29  and  O4_30
REMARK   13  A    between atoms: C34_38  and  O5_40
REMARK                            x       y       z     vdW  Elec       q    Type
REMARK                         _______ _______ _______ _____ _____    ______ ____
ROOT
ATOM      1  C7  UNK     0       0.552   0.758  -0.249  0.00  0.00    +0.000 C 
ATOM      2  C8  UNK     0       1.081  -0.563   0.424  0.00  0.00    +0.000 C 
ATOM      3  C9  UNK     0       2.568  -0.564   0.975  0.00  0.00    +0.000 C 
ATOM      4  C10 UNK     0      -0.866   0.411  -0.944  0.00  0.00    +0.000 C 
ATOM      5  C11 UNK     0       3.505  -0.080  -0.208  0.00  0.00    +0.000 C 
ATOM      6  C12 UNK     0       1.599   1.261  -1.298  0.00  0.00    +0.000 C 
ATOM      7  C13 UNK     0       3.074   1.288  -0.825  0.00  0.00    +0.000 C 
ATOM      8  C14 UNK     0       5.066  -0.304  -0.008  0.00  0.00    +0.000 C 
ATOM      9  C15 UNK     0      -1.870  -0.003   0.138  0.00  0.00    +0.000 C 
ATOM     10  C16 UNK     0      -3.289   0.642   0.187  0.00  0.00    +0.000 C 
ATOM     11  C17 UNK     0       2.951  -2.049   1.308  0.00  0.00    +0.000 C 
ATOM     12  C18 UNK     0       0.029  -1.211   1.371  0.00  0.00    +0.000 C 
ATOM     13  C19 UNK     0      -1.422   1.633  -1.728  0.00  0.00    +0.000 C 
ATOM     14  C20 UNK     0      -3.891   0.974  -1.245  0.00  0.00    +0.000 C 
ATOM     15  C21 UNK     0       0.359   1.898   0.808  0.00  0.00    +0.000 C 
ATOM     16  C22 UNK     0      -2.820   1.409  -2.303  0.00  0.00    +0.000 C 
ATOM     17  C23 UNK     0       5.307  -1.804   0.365  0.00  0.00    +0.000 C 
ATOM     18  C24 UNK     0       4.452  -2.277   1.560  0.00  0.00    +0.000 C 
ATOM     19  C25 UNK     0       2.702   0.288   2.284  0.00  0.00    +0.000 C 
ATOM     20  C26 UNK     0      -1.410  -0.783   1.166  0.00  0.00    +0.000 C 
ATOM     21  C27 UNK     0      -0.774  -0.804  -1.936  0.00  0.00    +0.000 C 
ATOM     22  C28 UNK     0      -4.311  -0.164   1.099  0.00  0.00    +0.000 C 
ATOM     23  C29 UNK     0      -4.614  -0.301  -1.764  0.00  0.00    +0.000 C 
ATOM     24  C31 UNK     0      -5.770  -0.219   0.552  0.00  0.00    +0.000 C 
ATOM     25  C32 UNK     0       5.693   0.622   1.070  0.00  0.00    +0.000 C 
ATOM     26  C33 UNK     0      -5.804  -0.754  -0.896  0.00  0.00    +0.000 C 
ATOM     27  C35 UNK     0      -4.292   0.391   2.542  0.00  0.00    +0.000 C 
ATOM     28  C36 UNK     0      -6.690  -1.088   1.430  0.00  0.00    +0.000 C 
ENDROOT
BRANCH  17  29
ATOM     29  O2  UNK     0       6.668  -2.027   0.652  0.00  0.00    +0.000 OA
ATOM     30  H78 UNK     0       6.870  -2.967   0.406  0.00  0.00    +0.000 HD
ENDBRANCH  17  29
BRANCH   7  31
ATOM     31  O1  UNK     0       3.318   2.357   0.048  0.00  0.00    +0.000 OA
ATOM     32  H74 UNK     0       3.240   3.193  -0.483  0.00  0.00    +0.000 HD
ENDBRANCH   7  31
BRANCH  18  33
ATOM     33  O3  UNK     0       4.694  -3.636   1.826  0.00  0.00    +0.000 OA
ATOM     34  H79 UNK     0       4.435  -4.156   1.021  0.00  0.00    +0.000 HD
ENDBRANCH  18  33
BRANCH  14  35
ATOM     35  C34 UNK     0      -4.886   2.130  -1.168  0.00  0.00    +0.000 C 
ATOM     36  O6  UNK     0      -4.684   3.100  -0.389  0.00  0.00    +0.000 OA
BRANCH  35  37
ATOM     37  O5  UNK     0      -5.962   2.183  -2.045  0.00  0.00    +0.000 OA
ATOM     38  H84 UNK     0      -6.590   2.982  -2.053  0.00  0.00    +0.000 HD
ENDBRANCH  35  37
ENDBRANCH  14  35
BRANCH   8  39
ATOM     39  C30 UNK     0       5.842  -0.019  -1.337  0.00  0.00    +0.000 C 
BRANCH  39  40
ATOM     40  O4  UNK     0       5.273  -0.700  -2.418  0.00  0.00    +0.000 OA
ATOM     41  H83 UNK     0       5.827  -0.490  -3.212  0.00  0.00    +0.000 HD
ENDBRANCH  39  40
ENDBRANCH   8  39
TORSDOF 7
