REMARK  Name = C:\Users\Maximilian\Desktop\Conformers\converted_pdb\conformers_pdb\Madecassic Acid_conf_18.pdb
REMARK  13 active torsions:
REMARK  status: ('A' for Active; 'I' for Inactive)
REMARK    1  A    between atoms: C7_1  and  C21_15
REMARK    2  A    between atoms: C9_3  and  C25_19
REMARK    3  A    between atoms: C10_4  and  C27_21
REMARK    4  A    between atoms: C13_7  and  O1_34
REMARK    5  A    between atoms: C14_8  and  C32_25
REMARK    6  A    between atoms: C14_8  and  C30_29
REMARK    7  A    between atoms: C20_14  and  C34_38
REMARK    8  A    between atoms: C23_17  and  O2_32
REMARK    9  A    between atoms: C24_18  and  O3_36
REMARK   10  A    between atoms: C28_22  and  C35_27
REMARK   11  A    between atoms: C31_24  and  C36_28
REMARK   12  A    between atoms: C30_29  and  O4_30
REMARK   13  A    between atoms: C34_38  and  O5_40
REMARK                            x       y       z     vdW  Elec       q    Type
REMARK                         _______ _______ _______ _____ _____    ______ ____
ROOT
ATOM      1  C7  UNK     0       0.439  -0.485  -0.733  0.00  0.00    +0.000 C 
ATOM      2  C8  UNK     0       0.988   0.679   0.179  0.00  0.00    +0.000 C 
ATOM      3  C9  UNK     0       2.563   0.976   0.199  0.00  0.00    +0.000 C 
ATOM      4  C10 UNK     0      -1.062  -0.840  -0.237  0.00  0.00    +0.000 C 
ATOM      5  C11 UNK     0       3.330  -0.402   0.284  0.00  0.00    +0.000 C 
ATOM      6  C12 UNK     0       1.376  -1.736  -0.647  0.00  0.00    +0.000 C 
ATOM      7  C13 UNK     0       2.874  -1.429  -0.799  0.00  0.00    +0.000 C 
ATOM      8  C14 UNK     0       4.903  -0.329   0.537  0.00  0.00    +0.000 C 
ATOM      9  C15 UNK     0      -1.932   0.443  -0.280  0.00  0.00    +0.000 C 
ATOM     10  C16 UNK     0      -3.459   0.384  -0.473  0.00  0.00    +0.000 C 
ATOM     11  C17 UNK     0       2.878   1.830   1.496  0.00  0.00    +0.000 C 
ATOM     12  C18 UNK     0       0.103   1.941   0.008  0.00  0.00    +0.000 C 
ATOM     13  C19 UNK     0      -1.666  -1.981  -1.131  0.00  0.00    +0.000 C 
ATOM     14  C20 UNK     0      -3.829  -0.673  -1.562  0.00  0.00    +0.000 C 
ATOM     15  C21 UNK     0       0.388  -0.022  -2.233  0.00  0.00    +0.000 C 
ATOM     16  C22 UNK     0      -3.203  -2.038  -1.171  0.00  0.00    +0.000 C 
ATOM     17  C23 UNK     0       5.276   0.909   1.450  0.00  0.00    +0.000 C 
ATOM     18  C24 UNK     0       4.100   1.388   2.327  0.00  0.00    +0.000 C 
ATOM     19  C25 UNK     0       3.039   1.835  -1.019  0.00  0.00    +0.000 C 
ATOM     20  C26 UNK     0      -1.377   1.659  -0.051  0.00  0.00    +0.000 C 
ATOM     21  C27 UNK     0      -1.128  -1.344   1.247  0.00  0.00    +0.000 C 
ATOM     22  C28 UNK     0      -4.248   0.201   0.875  0.00  0.00    +0.000 C 
ATOM     23  C29 UNK     0      -5.369  -0.794  -1.708  0.00  0.00    +0.000 C 
ATOM     24  C31 UNK     0      -5.780   0.137   0.605  0.00  0.00    +0.000 C 
ATOM     25  C32 UNK     0       5.703  -0.284  -0.796  0.00  0.00    +0.000 C 
ATOM     26  C33 UNK     0      -6.095  -0.999  -0.380  0.00  0.00    +0.000 C 
ATOM     27  C35 UNK     0      -3.909   1.324   1.878  0.00  0.00    +0.000 C 
ATOM     28  C36 UNK     0      -6.606  -0.074   1.889  0.00  0.00    +0.000 C 
ENDROOT
BRANCH  17  29
ATOM     29  O2  UNK     0       5.770   1.986   0.692  0.00  0.00    +0.000 OA
ATOM     30  H78 UNK     0       6.220   2.610   1.320  0.00  0.00    +0.000 HD
ENDBRANCH  17  29
BRANCH   7  31
ATOM     31  O1  UNK     0       3.171  -1.006  -2.103  0.00  0.00    +0.000 OA
ATOM     32  H74 UNK     0       3.089  -1.799  -2.695  0.00  0.00    +0.000 HD
ENDBRANCH   7  31
BRANCH  18  33
ATOM     33  O3  UNK     0       3.717   0.386   3.235  0.00  0.00    +0.000 OA
ATOM     34  H79 UNK     0       4.415   0.350   3.940  0.00  0.00    +0.000 HD
ENDBRANCH  18  33
BRANCH  14  35
ATOM     35  C34 UNK     0      -3.317  -0.238  -2.933  0.00  0.00    +0.000 C 
ATOM     36  O6  UNK     0      -3.159  -1.088  -3.853  0.00  0.00    +0.000 OA
BRANCH  35  37
ATOM     37  O5  UNK     0      -3.086   1.107  -3.212  0.00  0.00    +0.000 OA
ATOM     38  H84 UNK     0      -2.772   1.403  -4.130  0.00  0.00    +0.000 HD
ENDBRANCH  35  37
ENDBRANCH  14  35
BRANCH   8  39
ATOM     39  C30 UNK     0       5.354  -1.630   1.284  0.00  0.00    +0.000 C 
BRANCH  39  40
ATOM     40  O4  UNK     0       6.739  -1.631   1.510  0.00  0.00    +0.000 OA
ATOM     41  H83 UNK     0       6.947  -2.473   1.993  0.00  0.00    +0.000 HD
ENDBRANCH  39  40
ENDBRANCH   8  39
TORSDOF 7
