REMARK  Name = C:\Users\Maximilian\Desktop\Conformers\converted_pdb\conformers_pdb\Madecassic Acid_conf_21.pdb
REMARK  13 active torsions:
REMARK  status: ('A' for Active; 'I' for Inactive)
REMARK    1  A    between atoms: C7_1  and  C21_15
REMARK    2  A    between atoms: C9_3  and  C25_19
REMARK    3  A    between atoms: C10_4  and  C27_21
REMARK    4  A    between atoms: C13_7  and  O1_34
REMARK    5  A    between atoms: C14_8  and  C32_25
REMARK    6  A    between atoms: C14_8  and  C30_29
REMARK    7  A    between atoms: C20_14  and  C34_38
REMARK    8  A    between atoms: C23_17  and  O2_32
REMARK    9  A    between atoms: C24_18  and  O3_36
REMARK   10  A    between atoms: C28_22  and  C35_27
REMARK   11  A    between atoms: C31_24  and  C36_28
REMARK   12  A    between atoms: C30_29  and  O4_30
REMARK   13  A    between atoms: C34_38  and  O5_40
REMARK                            x       y       z     vdW  Elec       q    Type
REMARK                         _______ _______ _______ _____ _____    ______ ____
ROOT
ATOM      1  C7  UNK     0       0.378   0.380   0.849  0.00  0.00    +0.000 C 
ATOM      2  C8  UNK     0       1.190  -0.331  -0.307  0.00  0.00    +0.000 C 
ATOM      3  C9  UNK     0       2.790  -0.203  -0.294  0.00  0.00    +0.000 C 
ATOM      4  C10 UNK     0      -1.194   0.425   0.444  0.00  0.00    +0.000 C 
ATOM      5  C11 UNK     0       3.163   1.305  -0.071  0.00  0.00    +0.000 C 
ATOM      6  C12 UNK     0       0.933   1.826   1.058  0.00  0.00    +0.000 C 
ATOM      7  C13 UNK     0       2.466   1.926   1.178  0.00  0.00    +0.000 C 
ATOM      8  C14 UNK     0       4.689   1.735  -0.303  0.00  0.00    +0.000 C 
ATOM      9  C15 UNK     0      -1.688  -0.979   0.037  0.00  0.00    +0.000 C 
ATOM     10  C16 UNK     0      -3.183  -1.369   0.089  0.00  0.00    +0.000 C 
ATOM     11  C17 UNK     0       3.309  -0.551  -1.723  0.00  0.00    +0.000 C 
ATOM     12  C18 UNK     0       0.660  -1.765  -0.556  0.00  0.00    +0.000 C 
ATOM     13  C19 UNK     0      -2.059   0.958   1.639  0.00  0.00    +0.000 C 
ATOM     14  C20 UNK     0      -3.940  -0.748   1.323  0.00  0.00    +0.000 C 
ATOM     15  C21 UNK     0       0.549  -0.402   2.193  0.00  0.00    +0.000 C 
ATOM     16  C22 UNK     0      -3.567   0.749   1.468  0.00  0.00    +0.000 C 
ATOM     17  C23 UNK     0       5.567   0.639  -1.050  0.00  0.00    +0.000 C 
ATOM     18  C24 UNK     0       4.828  -0.388  -1.958  0.00  0.00    +0.000 C 
ATOM     19  C25 UNK     0       3.468  -1.170   0.733  0.00  0.00    +0.000 C 
ATOM     20  C26 UNK     0      -0.833  -1.904  -0.462  0.00  0.00    +0.000 C 
ATOM     21  C27 UNK     0      -1.475   1.373  -0.769  0.00  0.00    +0.000 C 
ATOM     22  C28 UNK     0      -3.983  -1.134  -1.237  0.00  0.00    +0.000 C 
ATOM     23  C29 UNK     0      -5.493  -0.842   1.133  0.00  0.00    +0.000 C 
ATOM     24  C31 UNK     0      -5.356  -1.887  -1.185  0.00  0.00    +0.000 C 
ATOM     25  C32 UNK     0       5.403   2.128   1.025  0.00  0.00    +0.000 C 
ATOM     26  C33 UNK     0      -5.902  -2.032   0.260  0.00  0.00    +0.000 C 
ATOM     27  C35 UNK     0      -3.197  -1.547  -2.498  0.00  0.00    +0.000 C 
ATOM     28  C36 UNK     0      -6.403  -1.202  -2.083  0.00  0.00    +0.000 C 
ENDROOT
BRANCH  17  29
ATOM     29  O2  UNK     0       6.480  -0.021  -0.201  0.00  0.00    +0.000 OA
ATOM     30  H78 UNK     0       5.977  -0.545   0.464  0.00  0.00    +0.000 HD
ENDBRANCH  17  29
BRANCH   7  31
ATOM     31  O1  UNK     0       2.920   1.358   2.377  0.00  0.00    +0.000 OA
ATOM     32  H74 UNK     0       2.627   1.956   3.113  0.00  0.00    +0.000 HD
ENDBRANCH   7  31
BRANCH  18  33
ATOM     33  O3  UNK     0       5.048  -0.054  -3.308  0.00  0.00    +0.000 OA
ATOM     34  H79 UNK     0       4.823  -0.856  -3.848  0.00  0.00    +0.000 HD
ENDBRANCH  18  33
BRANCH  14  35
ATOM     35  C34 UNK     0      -3.575  -1.476   2.616  0.00  0.00    +0.000 C 
ATOM     36  O6  UNK     0      -2.764  -2.444   2.619  0.00  0.00    +0.000 OA
BRANCH  35  37
ATOM     37  O5  UNK     0      -4.132  -1.060   3.824  0.00  0.00    +0.000 OA
ATOM     38  H84 UNK     0      -3.902  -1.527   4.694  0.00  0.00    +0.000 HD
ENDBRANCH  35  37
ENDBRANCH  14  35
BRANCH   8  39
ATOM     39  C30 UNK     0       4.715   3.015  -1.207  0.00  0.00    +0.000 C 
BRANCH  39  40
ATOM     40  O4  UNK     0       3.949   4.054  -0.659  0.00  0.00    +0.000 OA
ATOM     41  H83 UNK     0       4.018   4.815  -1.294  0.00  0.00    +0.000 HD
ENDBRANCH  39  40
ENDBRANCH   8  39
TORSDOF 7
