REMARK  Name = C:\Users\Maximilian\Desktop\Conformers\converted_pdb\conformers_pdb\Madecassic Acid_conf_15.pdb
REMARK  13 active torsions:
REMARK  status: ('A' for Active; 'I' for Inactive)
REMARK    1  A    between atoms: C7_1  and  C21_15
REMARK    2  A    between atoms: C9_3  and  C25_19
REMARK    3  A    between atoms: C10_4  and  C27_21
REMARK    4  A    between atoms: C13_7  and  O1_34
REMARK    5  A    between atoms: C14_8  and  C32_25
REMARK    6  A    between atoms: C14_8  and  C30_29
REMARK    7  A    between atoms: C20_14  and  C34_38
REMARK    8  A    between atoms: C23_17  and  O2_32
REMARK    9  A    between atoms: C24_18  and  O3_36
REMARK   10  A    between atoms: C28_22  and  C35_27
REMARK   11  A    between atoms: C31_24  and  C36_28
REMARK   12  A    between atoms: C30_29  and  O4_30
REMARK   13  A    between atoms: C34_38  and  O5_40
REMARK                            x       y       z     vdW  Elec       q    Type
REMARK                         _______ _______ _______ _____ _____    ______ ____
ROOT
ATOM      1  C7  UNK     0       0.358   0.076   0.763  0.00  0.00    +0.000 C 
ATOM      2  C8  UNK     0       1.061  -0.341  -0.592  0.00  0.00    +0.000 C 
ATOM      3  C9  UNK     0       2.606  -0.752  -0.530  0.00  0.00    +0.000 C 
ATOM      4  C10 UNK     0      -1.108   0.693   0.430  0.00  0.00    +0.000 C 
ATOM      5  C11 UNK     0       3.383   0.398   0.225  0.00  0.00    +0.000 C 
ATOM      6  C12 UNK     0       1.273   1.124   1.488  0.00  0.00    +0.000 C 
ATOM      7  C13 UNK     0       2.764   0.744   1.617  0.00  0.00    +0.000 C 
ATOM      8  C14 UNK     0       4.974   0.358   0.145  0.00  0.00    +0.000 C 
ATOM      9  C15 UNK     0      -1.913  -0.289  -0.440  0.00  0.00    +0.000 C 
ATOM     10  C16 UNK     0      -3.447  -0.387  -0.320  0.00  0.00    +0.000 C 
ATOM     11  C17 UNK     0       3.143  -0.795  -2.001  0.00  0.00    +0.000 C 
ATOM     12  C18 UNK     0       0.185  -1.288  -1.456  0.00  0.00    +0.000 C 
ATOM     13  C19 UNK     0      -1.953   1.033   1.714  0.00  0.00    +0.000 C 
ATOM     14  C20 UNK     0      -3.902  -0.618   1.180  0.00  0.00    +0.000 C 
ATOM     15  C21 UNK     0       0.193  -1.148   1.705  0.00  0.00    +0.000 C 
ATOM     16  C22 UNK     0      -2.863  -0.100   2.224  0.00  0.00    +0.000 C 
ATOM     17  C23 UNK     0       5.377   0.255  -1.372  0.00  0.00    +0.000 C 
ATOM     18  C24 UNK     0       4.675  -0.891  -2.127  0.00  0.00    +0.000 C 
ATOM     19  C25 UNK     0       2.823  -2.169   0.105  0.00  0.00    +0.000 C 
ATOM     20  C26 UNK     0      -1.300  -1.080  -1.347  0.00  0.00    +0.000 C 
ATOM     21  C27 UNK     0      -1.000   2.031  -0.378  0.00  0.00    +0.000 C 
ATOM     22  C28 UNK     0      -4.203   0.781  -1.039  0.00  0.00    +0.000 C 
ATOM     23  C29 UNK     0      -5.262   0.094   1.448  0.00  0.00    +0.000 C 
ATOM     24  C31 UNK     0      -5.756   0.581  -0.998  0.00  0.00    +0.000 C 
ATOM     25  C32 UNK     0       5.603  -0.800   0.965  0.00  0.00    +0.000 C 
ATOM     26  C33 UNK     0      -6.237  -0.128   0.291  0.00  0.00    +0.000 C 
ATOM     27  C35 UNK     0      -3.734   0.932  -2.503  0.00  0.00    +0.000 C 
ATOM     28  C36 UNK     0      -6.493   1.924  -1.161  0.00  0.00    +0.000 C 
ENDROOT
BRANCH  17  29
ATOM     29  O2  UNK     0       6.773   0.165  -1.548  0.00  0.00    +0.000 OA
ATOM     30  H78 UNK     0       7.061  -0.755  -1.315  0.00  0.00    +0.000 HD
ENDBRANCH  17  29
BRANCH   7  31
ATOM     31  O1  UNK     0       2.951  -0.275   2.560  0.00  0.00    +0.000 OA
ATOM     32  H74 UNK     0       2.774   0.117   3.455  0.00  0.00    +0.000 HD
ENDBRANCH   7  31
BRANCH  18  33
ATOM     33  O3  UNK     0       5.029  -0.815  -3.485  0.00  0.00    +0.000 OA
ATOM     34  H79 UNK     0       4.802  -1.691  -3.894  0.00  0.00    +0.000 HD
ENDBRANCH  18  33
BRANCH  14  35
ATOM     35  C34 UNK     0      -4.058  -2.121   1.421  0.00  0.00    +0.000 C 
ATOM     36  O6  UNK     0      -3.185  -2.922   0.987  0.00  0.00    +0.000 OA
BRANCH  35  37
ATOM     37  O5  UNK     0      -5.112  -2.623   2.183  0.00  0.00    +0.000 OA
ATOM     38  H84 UNK     0      -5.198  -3.616   2.363  0.00  0.00    +0.000 HD
ENDBRANCH  35  37
ENDBRANCH  14  35
BRANCH   8  39
ATOM     39  C30 UNK     0       5.550   1.698   0.719  0.00  0.00    +0.000 C 
BRANCH  39  40
ATOM     40  O4  UNK     0       6.932   1.822   0.497  0.00  0.00    +0.000 OA
ATOM     41  H83 UNK     0       7.055   2.476  -0.240  0.00  0.00    +0.000 HD
ENDBRANCH  39  40
ENDBRANCH   8  39
TORSDOF 7
