REMARK  Name = C:\Users\Maximilian\Desktop\Conformers\converted_pdb\conformers_pdb\Madecassic Acid_conf_4.pdb
REMARK  13 active torsions:
REMARK  status: ('A' for Active; 'I' for Inactive)
REMARK    1  A    between atoms: C7_1  and  C21_15
REMARK    2  A    between atoms: C9_3  and  C25_19
REMARK    3  A    between atoms: C10_4  and  C27_21
REMARK    4  A    between atoms: C13_7  and  O1_34
REMARK    5  A    between atoms: C14_8  and  C32_25
REMARK    6  A    between atoms: C14_8  and  C30_29
REMARK    7  A    between atoms: C20_14  and  C34_38
REMARK    8  A    between atoms: C23_17  and  O2_32
REMARK    9  A    between atoms: C24_18  and  O3_36
REMARK   10  A    between atoms: C28_22  and  C35_27
REMARK   11  A    between atoms: C31_24  and  C36_28
REMARK   12  A    between atoms: C30_29  and  O4_30
REMARK   13  A    between atoms: C34_38  and  O5_40
REMARK                            x       y       z     vdW  Elec       q    Type
REMARK                         _______ _______ _______ _____ _____    ______ ____
ROOT
ATOM      1  C7  UNK     0       0.415   0.140   0.766  0.00  0.00    +0.000 C 
ATOM      2  C8  UNK     0       1.041  -0.144  -0.654  0.00  0.00    +0.000 C 
ATOM      3  C9  UNK     0       2.588  -0.531  -0.715  0.00  0.00    +0.000 C 
ATOM      4  C10 UNK     0      -1.093   0.697   0.572  0.00  0.00    +0.000 C 
ATOM      5  C11 UNK     0       3.396   0.569   0.061  0.00  0.00    +0.000 C 
ATOM      6  C12 UNK     0       1.342   1.185   1.489  0.00  0.00    +0.000 C 
ATOM      7  C13 UNK     0       2.848   0.851   1.493  0.00  0.00    +0.000 C 
ATOM      8  C14 UNK     0       4.990   0.527  -0.070  0.00  0.00    +0.000 C 
ATOM      9  C15 UNK     0      -1.923  -0.351  -0.209  0.00  0.00    +0.000 C 
ATOM     10  C16 UNK     0      -3.377  -0.737   0.138  0.00  0.00    +0.000 C 
ATOM     11  C17 UNK     0       3.034  -0.447  -2.212  0.00  0.00    +0.000 C 
ATOM     12  C18 UNK     0       0.135  -1.017  -1.565  0.00  0.00    +0.000 C 
ATOM     13  C19 UNK     0      -1.736   1.072   1.969  0.00  0.00    +0.000 C 
ATOM     14  C20 UNK     0      -4.006   0.019   1.354  0.00  0.00    +0.000 C 
ATOM     15  C21 UNK     0       0.336  -1.164   1.628  0.00  0.00    +0.000 C 
ATOM     16  C22 UNK     0      -2.918   0.212   2.427  0.00  0.00    +0.000 C 
ATOM     17  C23 UNK     0       5.473  -0.409  -1.243  0.00  0.00    +0.000 C 
ATOM     18  C24 UNK     0       4.561  -0.408  -2.490  0.00  0.00    +0.000 C 
ATOM     19  C25 UNK     0       2.851  -1.983  -0.196  0.00  0.00    +0.000 C 
ATOM     20  C26 UNK     0      -1.316  -1.090  -1.174  0.00  0.00    +0.000 C 
ATOM     21  C27 UNK     0      -1.158   1.985  -0.309  0.00  0.00    +0.000 C 
ATOM     22  C28 UNK     0      -4.325  -0.800  -1.131  0.00  0.00    +0.000 C 
ATOM     23  C29 UNK     0      -4.635   1.407   0.957  0.00  0.00    +0.000 C 
ATOM     24  C31 UNK     0      -5.559   0.146  -1.058  0.00  0.00    +0.000 C 
ATOM     25  C32 UNK     0       5.687   0.063   1.242  0.00  0.00    +0.000 C 
ATOM     26  C33 UNK     0      -5.145   1.503  -0.487  0.00  0.00    +0.000 C 
ATOM     27  C35 UNK     0      -4.785  -2.253  -1.386  0.00  0.00    +0.000 C 
ATOM     28  C36 UNK     0      -6.206   0.357  -2.440  0.00  0.00    +0.000 C 
ENDROOT
BRANCH  17  29
ATOM     29  O2  UNK     0       5.646  -1.738  -0.806  0.00  0.00    +0.000 OA
ATOM     30  H78 UNK     0       6.604  -1.865  -0.575  0.00  0.00    +0.000 HD
ENDBRANCH  17  29
BRANCH   7  31
ATOM     31  O1  UNK     0       3.097  -0.213   2.376  0.00  0.00    +0.000 OA
ATOM     32  H74 UNK     0       3.394   0.176   3.241  0.00  0.00    +0.000 HD
ENDBRANCH   7  31
BRANCH  18  33
ATOM     33  O3  UNK     0       4.873   0.707  -3.292  0.00  0.00    +0.000 OA
ATOM     34  H79 UNK     0       4.552   0.496  -4.210  0.00  0.00    +0.000 HD
ENDBRANCH  18  33
BRANCH  14  35
ATOM     35  C34 UNK     0      -5.070  -0.890   1.984  0.00  0.00    +0.000 C 
ATOM     36  O6  UNK     0      -6.267  -0.513   2.119  0.00  0.00    +0.000 OA
BRANCH  35  37
ATOM     37  O5  UNK     0      -4.710  -2.157   2.442  0.00  0.00    +0.000 OA
ATOM     38  H84 UNK     0      -5.394  -2.770   2.868  0.00  0.00    +0.000 HD
ENDBRANCH  35  37
ENDBRANCH  14  35
BRANCH   8  39
ATOM     39  C30 UNK     0       5.490   1.984  -0.351  0.00  0.00    +0.000 C 
BRANCH  39  40
ATOM     40  O4  UNK     0       6.892   2.057  -0.421  0.00  0.00    +0.000 OA
ATOM     41  H83 UNK     0       7.217   2.359   0.465  0.00  0.00    +0.000 HD
ENDBRANCH  39  40
ENDBRANCH   8  39
TORSDOF 7
