REMARK  Name = C:\Users\Maximilian\Desktop\Conformers\converted_pdb\conformers_pdb\Madecassic Acid_conf_25.pdb
REMARK  13 active torsions:
REMARK  status: ('A' for Active; 'I' for Inactive)
REMARK    1  A    between atoms: C7_1  and  C21_15
REMARK    2  A    between atoms: C9_3  and  C25_19
REMARK    3  A    between atoms: C10_4  and  C27_21
REMARK    4  A    between atoms: C13_7  and  O1_34
REMARK    5  A    between atoms: C14_8  and  C32_25
REMARK    6  A    between atoms: C14_8  and  C30_29
REMARK    7  A    between atoms: C20_14  and  C34_38
REMARK    8  A    between atoms: C23_17  and  O2_32
REMARK    9  A    between atoms: C24_18  and  O3_36
REMARK   10  A    between atoms: C28_22  and  C35_27
REMARK   11  A    between atoms: C31_24  and  C36_28
REMARK   12  A    between atoms: C30_29  and  O4_30
REMARK   13  A    between atoms: C34_38  and  O5_40
REMARK                            x       y       z     vdW  Elec       q    Type
REMARK                         _______ _______ _______ _____ _____    ______ ____
ROOT
ATOM      1  C7  UNK     0      -0.288   0.803  -0.125  0.00  0.00    +0.000 C 
ATOM      2  C8  UNK     0      -1.084  -0.550  -0.054  0.00  0.00    +0.000 C 
ATOM      3  C9  UNK     0      -2.660  -0.474  -0.251  0.00  0.00    +0.000 C 
ATOM      4  C10 UNK     0       1.222   0.507   0.370  0.00  0.00    +0.000 C 
ATOM      5  C11 UNK     0      -3.219   0.590   0.777  0.00  0.00    +0.000 C 
ATOM      6  C12 UNK     0      -0.977   1.875   0.784  0.00  0.00    +0.000 C 
ATOM      7  C13 UNK     0      -2.516   1.982   0.670  0.00  0.00    +0.000 C 
ATOM      8  C14 UNK     0      -4.800   0.608   0.988  0.00  0.00    +0.000 C 
ATOM      9  C15 UNK     0       1.856  -0.504  -0.607  0.00  0.00    +0.000 C 
ATOM     10  C16 UNK     0       3.366  -0.525  -0.899  0.00  0.00    +0.000 C 
ATOM     11  C17 UNK     0      -3.240  -1.875   0.139  0.00  0.00    +0.000 C 
ATOM     12  C18 UNK     0      -0.383  -1.691  -0.861  0.00  0.00    +0.000 C 
ATOM     13  C19 UNK     0       2.043   1.845   0.486  0.00  0.00    +0.000 C 
ATOM     14  C20 UNK     0       3.920   0.931  -0.996  0.00  0.00    +0.000 C 
ATOM     15  C21 UNK     0      -0.277   1.345  -1.599  0.00  0.00    +0.000 C 
ATOM     16  C22 UNK     0       3.559   1.699   0.304  0.00  0.00    +0.000 C 
ATOM     17  C23 UNK     0      -5.260  -0.857   1.326  0.00  0.00    +0.000 C 
ATOM     18  C24 UNK     0      -4.770  -1.909   0.302  0.00  0.00    +0.000 C 
ATOM     19  C25 UNK     0      -3.052  -0.169  -1.737  0.00  0.00    +0.000 C 
ATOM     20  C26 UNK     0       1.090  -1.489  -1.142  0.00  0.00    +0.000 C 
ATOM     21  C27 UNK     0       1.296  -0.177   1.778  0.00  0.00    +0.000 C 
ATOM     22  C28 UNK     0       4.162  -1.425   0.119  0.00  0.00    +0.000 C 
ATOM     23  C29 UNK     0       5.455   0.911  -1.213  0.00  0.00    +0.000 C 
ATOM     24  C31 UNK     0       5.690  -1.390  -0.191  0.00  0.00    +0.000 C 
ATOM     25  C32 UNK     0      -5.582   1.160  -0.235  0.00  0.00    +0.000 C 
ATOM     26  C33 UNK     0       6.203   0.058  -0.190  0.00  0.00    +0.000 C 
ATOM     27  C35 UNK     0       3.637  -2.878   0.113  0.00  0.00    +0.000 C 
ATOM     28  C36 UNK     0       6.521  -2.209   0.817  0.00  0.00    +0.000 C 
ENDROOT
BRANCH  17  29
ATOM     29  O2  UNK     0      -6.657  -0.957   1.494  0.00  0.00    +0.000 OA
ATOM     30  H78 UNK     0      -7.081  -0.951   0.597  0.00  0.00    +0.000 HD
ENDBRANCH  17  29
BRANCH   7  31
ATOM     31  O1  UNK     0      -2.888   2.684  -0.484  0.00  0.00    +0.000 OA
ATOM     32  H74 UNK     0      -2.657   3.638  -0.337  0.00  0.00    +0.000 HD
ENDBRANCH   7  31
BRANCH  18  33
ATOM     33  O3  UNK     0      -5.183  -3.198   0.686  0.00  0.00    +0.000 OA
ATOM     34  H79 UNK     0      -4.789  -3.392   1.577  0.00  0.00    +0.000 HD
ENDBRANCH  18  33
BRANCH  14  35
ATOM     35  C34 UNK     0       3.334   1.663  -2.201  0.00  0.00    +0.000 C 
ATOM     36  O6  UNK     0       3.525   2.904  -2.337  0.00  0.00    +0.000 OA
BRANCH  35  37
ATOM     37  O5  UNK     0       2.627   0.975  -3.184  0.00  0.00    +0.000 OA
ATOM     38  H84 UNK     0       2.253   1.460  -3.991  0.00  0.00    +0.000 HD
ENDBRANCH  35  37
ENDBRANCH  14  35
BRANCH   8  39
ATOM     39  C30 UNK     0      -5.143   1.527   2.208  0.00  0.00    +0.000 C 
BRANCH  39  40
ATOM     40  O4  UNK     0      -6.491   1.414   2.584  0.00  0.00    +0.000 OA
ATOM     41  H83 UNK     0      -6.623   2.038   3.343  0.00  0.00    +0.000 HD
ENDBRANCH  39  40
ENDBRANCH   8  39
TORSDOF 7
