REMARK  Name = C:\Users\Maximilian\Desktop\Conformers\converted_pdb\conformers_pdb\Madecassic Acid_conf_41.pdb
REMARK  13 active torsions:
REMARK  status: ('A' for Active; 'I' for Inactive)
REMARK    1  A    between atoms: C7_1  and  C21_15
REMARK    2  A    between atoms: C9_3  and  C25_19
REMARK    3  A    between atoms: C10_4  and  C27_21
REMARK    4  A    between atoms: C13_7  and  O1_34
REMARK    5  A    between atoms: C14_8  and  C32_25
REMARK    6  A    between atoms: C14_8  and  C30_29
REMARK    7  A    between atoms: C20_14  and  C34_38
REMARK    8  A    between atoms: C23_17  and  O2_32
REMARK    9  A    between atoms: C24_18  and  O3_36
REMARK   10  A    between atoms: C28_22  and  C35_27
REMARK   11  A    between atoms: C31_24  and  C36_28
REMARK   12  A    between atoms: C30_29  and  O4_30
REMARK   13  A    between atoms: C34_38  and  O5_40
REMARK                            x       y       z     vdW  Elec       q    Type
REMARK                         _______ _______ _______ _____ _____    ______ ____
ROOT
ATOM      1  C7  UNK     0      -0.560   0.479  -0.982  0.00  0.00    +0.000 C 
ATOM      2  C8  UNK     0      -1.057  -0.704  -0.052  0.00  0.00    +0.000 C 
ATOM      3  C9  UNK     0      -2.625  -0.899   0.147  0.00  0.00    +0.000 C 
ATOM      4  C10 UNK     0       1.106   0.555  -0.985  0.00  0.00    +0.000 C 
ATOM      5  C11 UNK     0      -3.177   0.477   0.697  0.00  0.00    +0.000 C 
ATOM      6  C12 UNK     0      -1.239   1.770  -0.392  0.00  0.00    +0.000 C 
ATOM      7  C13 UNK     0      -2.768   1.712  -0.159  0.00  0.00    +0.000 C 
ATOM      8  C14 UNK     0      -4.659   0.465   1.261  0.00  0.00    +0.000 C 
ATOM      9  C15 UNK     0       1.757  -0.522  -0.085  0.00  0.00    +0.000 C 
ATOM     10  C16 UNK     0       3.264  -0.510   0.162  0.00  0.00    +0.000 C 
ATOM     11  C17 UNK     0      -2.864  -1.970   1.264  0.00  0.00    +0.000 C 
ATOM     12  C18 UNK     0      -0.256  -1.969  -0.357  0.00  0.00    +0.000 C 
ATOM     13  C19 UNK     0       1.764   0.228  -2.363  0.00  0.00    +0.000 C 
ATOM     14  C20 UNK     0       4.073  -0.404  -1.198  0.00  0.00    +0.000 C 
ATOM     15  C21 UNK     0      -1.066   0.339  -2.455  0.00  0.00    +0.000 C 
ATOM     16  C22 UNK     0       3.306   0.305  -2.381  0.00  0.00    +0.000 C 
ATOM     17  C23 UNK     0      -4.773  -0.673   2.333  0.00  0.00    +0.000 C 
ATOM     18  C24 UNK     0      -4.306  -2.038   1.793  0.00  0.00    +0.000 C 
ATOM     19  C25 UNK     0      -3.313  -1.408  -1.161  0.00  0.00    +0.000 C 
ATOM     20  C26 UNK     0       1.142  -1.719   0.099  0.00  0.00    +0.000 C 
ATOM     21  C27 UNK     0       1.583   1.988  -0.587  0.00  0.00    +0.000 C 
ATOM     22  C28 UNK     0       3.745   0.457   1.292  0.00  0.00    +0.000 C 
ATOM     23  C29 UNK     0       5.384   0.405  -0.946  0.00  0.00    +0.000 C 
ATOM     24  C31 UNK     0       5.249   0.153   1.620  0.00  0.00    +0.000 C 
ATOM     25  C32 UNK     0      -5.741   0.285   0.156  0.00  0.00    +0.000 C 
ATOM     26  C33 UNK     0       6.115  -0.028   0.331  0.00  0.00    +0.000 C 
ATOM     27  C35 UNK     0       2.853   0.349   2.539  0.00  0.00    +0.000 C 
ATOM     28  C36 UNK     0       5.871   1.240   2.534  0.00  0.00    +0.000 C 
ENDROOT
BRANCH  17  29
ATOM     29  O2  UNK     0      -6.101  -0.761   2.790  0.00  0.00    +0.000 OA
ATOM     30  H78 UNK     0      -6.101  -1.318   3.623  0.00  0.00    +0.000 HD
ENDBRANCH  17  29
BRANCH   7  31
ATOM     31  O1  UNK     0      -3.482   1.781  -1.368  0.00  0.00    +0.000 OA
ATOM     32  H74 UNK     0      -3.426   2.723  -1.682  0.00  0.00    +0.000 HD
ENDBRANCH   7  31
BRANCH  18  33
ATOM     33  O3  UNK     0      -4.340  -2.989   2.832  0.00  0.00    +0.000 OA
ATOM     34  H79 UNK     0      -5.238  -3.404   2.818  0.00  0.00    +0.000 HD
ENDBRANCH  18  33
BRANCH  14  35
ATOM     35  C34 UNK     0       4.441  -1.797  -1.701  0.00  0.00    +0.000 C 
ATOM     36  O6  UNK     0       3.826  -2.822  -1.300  0.00  0.00    +0.000 OA
BRANCH  35  37
ATOM     37  O5  UNK     0       5.429  -1.938  -2.680  0.00  0.00    +0.000 OA
ATOM     38  H84 UNK     0       5.684  -2.858  -3.038  0.00  0.00    +0.000 HD
ENDBRANCH  35  37
ENDBRANCH  14  35
BRANCH   8  39
ATOM     39  C30 UNK     0      -4.993   1.809   1.984  0.00  0.00    +0.000 C 
BRANCH  39  40
ATOM     40  O4  UNK     0      -4.036   2.115   2.965  0.00  0.00    +0.000 OA
ATOM     41  H83 UNK     0      -4.406   2.881   3.474  0.00  0.00    +0.000 HD
ENDBRANCH  39  40
ENDBRANCH   8  39
TORSDOF 7
