REMARK  Name = C:\Users\Maximilian\Desktop\Conformers\converted_pdb\conformers_pdb\Madecassic Acid_conf_32.pdb
REMARK  13 active torsions:
REMARK  status: ('A' for Active; 'I' for Inactive)
REMARK    1  A    between atoms: C7_1  and  C21_15
REMARK    2  A    between atoms: C9_3  and  C25_19
REMARK    3  A    between atoms: C10_4  and  C27_21
REMARK    4  A    between atoms: C13_7  and  O1_34
REMARK    5  A    between atoms: C14_8  and  C32_25
REMARK    6  A    between atoms: C14_8  and  C30_29
REMARK    7  A    between atoms: C20_14  and  C34_38
REMARK    8  A    between atoms: C23_17  and  O2_32
REMARK    9  A    between atoms: C24_18  and  O3_36
REMARK   10  A    between atoms: C28_22  and  C35_27
REMARK   11  A    between atoms: C31_24  and  C36_28
REMARK   12  A    between atoms: C30_29  and  O4_30
REMARK   13  A    between atoms: C34_38  and  O5_40
REMARK                            x       y       z     vdW  Elec       q    Type
REMARK                         _______ _______ _______ _____ _____    ______ ____
ROOT
ATOM      1  C7  UNK     0      -0.470  -0.136  -0.688  0.00  0.00    +0.000 C 
ATOM      2  C8  UNK     0      -1.168  -0.150   0.732  0.00  0.00    +0.000 C 
ATOM      3  C9  UNK     0      -2.594  -0.844   0.820  0.00  0.00    +0.000 C 
ATOM      4  C10 UNK     0       0.840   0.803  -0.568  0.00  0.00    +0.000 C 
ATOM      5  C11 UNK     0      -3.490  -0.139  -0.284  0.00  0.00    +0.000 C 
ATOM      6  C12 UNK     0      -1.469   0.402  -1.768  0.00  0.00    +0.000 C 
ATOM      7  C13 UNK     0      -2.903  -0.185  -1.728  0.00  0.00    +0.000 C 
ATOM      8  C14 UNK     0      -5.047  -0.324  -0.087  0.00  0.00    +0.000 C 
ATOM      9  C15 UNK     0       1.826   0.129   0.390  0.00  0.00    +0.000 C 
ATOM     10  C16 UNK     0       3.288  -0.141  -0.064  0.00  0.00    +0.000 C 
ATOM     11  C17 UNK     0      -3.250  -0.595   2.243  0.00  0.00    +0.000 C 
ATOM     12  C18 UNK     0      -0.164  -0.506   1.875  0.00  0.00    +0.000 C 
ATOM     13  C19 UNK     0       1.505   1.027  -1.963  0.00  0.00    +0.000 C 
ATOM     14  C20 UNK     0       3.901   1.009  -0.973  0.00  0.00    +0.000 C 
ATOM     15  C21 UNK     0      -0.037  -1.580  -1.129  0.00  0.00    +0.000 C 
ATOM     16  C22 UNK     0       2.856   1.733  -1.887  0.00  0.00    +0.000 C 
ATOM     17  C23 UNK     0      -5.469   0.307   1.311  0.00  0.00    +0.000 C 
ATOM     18  C24 UNK     0      -4.298   0.527   2.314  0.00  0.00    +0.000 C 
ATOM     19  C25 UNK     0      -2.469  -2.400   0.634  0.00  0.00    +0.000 C 
ATOM     20  C26 UNK     0       1.309  -0.458   1.511  0.00  0.00    +0.000 C 
ATOM     21  C27 UNK     0       0.536   2.217   0.039  0.00  0.00    +0.000 C 
ATOM     22  C28 UNK     0       4.251  -0.553   1.129  0.00  0.00    +0.000 C 
ATOM     23  C29 UNK     0       4.543   2.068  -0.036  0.00  0.00    +0.000 C 
ATOM     24  C31 UNK     0       5.702  -0.003   1.001  0.00  0.00    +0.000 C 
ATOM     25  C32 UNK     0      -5.454  -1.820  -0.162  0.00  0.00    +0.000 C 
ATOM     26  C33 UNK     0       5.704   1.531   0.822  0.00  0.00    +0.000 C 
ATOM     27  C35 UNK     0       4.269  -2.091   1.289  0.00  0.00    +0.000 C 
ATOM     28  C36 UNK     0       6.580  -0.368   2.212  0.00  0.00    +0.000 C 
ENDROOT
BRANCH  17  29
ATOM     29  O2  UNK     0      -6.464  -0.462   1.945  0.00  0.00    +0.000 OA
ATOM     30  H78 UNK     0      -7.321  -0.268   1.481  0.00  0.00    +0.000 HD
ENDBRANCH  17  29
BRANCH   7  31
ATOM     31  O1  UNK     0      -2.937  -1.468  -2.295  0.00  0.00    +0.000 OA
ATOM     32  H74 UNK     0      -3.739  -1.521  -2.878  0.00  0.00    +0.000 HD
ENDBRANCH   7  31
BRANCH  18  33
ATOM     33  O3  UNK     0      -3.675   1.771   2.112  0.00  0.00    +0.000 OA
ATOM     34  H79 UNK     0      -4.284   2.465   2.478  0.00  0.00    +0.000 HD
ENDBRANCH  18  33
BRANCH  14  35
ATOM     35  C34 UNK     0       4.960   0.443  -1.921  0.00  0.00    +0.000 C 
ATOM     36  O6  UNK     0       4.803  -0.687  -2.459  0.00  0.00    +0.000 OA
BRANCH  35  37
ATOM     37  O5  UNK     0       6.063   1.214  -2.283  0.00  0.00    +0.000 OA
ATOM     38  H84 UNK     0       6.753   0.861  -2.934  0.00  0.00    +0.000 HD
ENDBRANCH  35  37
ENDBRANCH  14  35
BRANCH   8  39
ATOM     39  C30 UNK     0      -5.851   0.407  -1.206  0.00  0.00    +0.000 C 
BRANCH  39  40
ATOM     40  O4  UNK     0      -5.478   1.756  -1.301  0.00  0.00    +0.000 OA
ATOM     41  H83 UNK     0      -6.017   2.141  -2.039  0.00  0.00    +0.000 HD
ENDBRANCH  39  40
ENDBRANCH   8  39
TORSDOF 7
