REMARK  Name = C:\Users\Maximilian\Desktop\Conformers\converted_pdb\conformers_pdb\Madecassic Acid_conf_50.pdb
REMARK  13 active torsions:
REMARK  status: ('A' for Active; 'I' for Inactive)
REMARK    1  A    between atoms: C7_1  and  C21_15
REMARK    2  A    between atoms: C9_3  and  C25_19
REMARK    3  A    between atoms: C10_4  and  C27_21
REMARK    4  A    between atoms: C13_7  and  O1_34
REMARK    5  A    between atoms: C14_8  and  C32_25
REMARK    6  A    between atoms: C14_8  and  C30_29
REMARK    7  A    between atoms: C20_14  and  C34_38
REMARK    8  A    between atoms: C23_17  and  O2_32
REMARK    9  A    between atoms: C24_18  and  O3_36
REMARK   10  A    between atoms: C28_22  and  C35_27
REMARK   11  A    between atoms: C31_24  and  C36_28
REMARK   12  A    between atoms: C30_29  and  O4_30
REMARK   13  A    between atoms: C34_38  and  O5_40
REMARK                            x       y       z     vdW  Elec       q    Type
REMARK                         _______ _______ _______ _____ _____    ______ ____
ROOT
ATOM      1  C7  UNK     0       0.376  -0.046  -0.819  0.00  0.00    +0.000 C 
ATOM      2  C8  UNK     0       1.073   0.219   0.578  0.00  0.00    +0.000 C 
ATOM      3  C9  UNK     0       2.476   0.960   0.523  0.00  0.00    +0.000 C 
ATOM      4  C10 UNK     0      -0.885  -1.001  -0.530  0.00  0.00    +0.000 C 
ATOM      5  C11 UNK     0       3.395   0.083  -0.431  0.00  0.00    +0.000 C 
ATOM      6  C12 UNK     0       1.381  -0.711  -1.822  0.00  0.00    +0.000 C 
ATOM      7  C13 UNK     0       2.818  -0.120  -1.862  0.00  0.00    +0.000 C 
ATOM      8  C14 UNK     0       4.950   0.317  -0.256  0.00  0.00    +0.000 C 
ATOM      9  C15 UNK     0      -1.893  -0.169   0.270  0.00  0.00    +0.000 C 
ATOM     10  C16 UNK     0      -3.317   0.024  -0.318  0.00  0.00    +0.000 C 
ATOM     11  C17 UNK     0       3.140   1.024   1.956  0.00  0.00    +0.000 C 
ATOM     12  C18 UNK     0       0.055   0.720   1.661  0.00  0.00    +0.000 C 
ATOM     13  C19 UNK     0      -1.541  -1.545  -1.842  0.00  0.00    +0.000 C 
ATOM     14  C20 UNK     0      -3.921  -1.367  -0.718  0.00  0.00    +0.000 C 
ATOM     15  C21 UNK     0      -0.123   1.300  -1.463  0.00  0.00    +0.000 C 
ATOM     16  C22 UNK     0      -2.929  -2.191  -1.625  0.00  0.00    +0.000 C 
ATOM     17  C23 UNK     0       5.346  -0.094   1.228  0.00  0.00    +0.000 C 
ATOM     18  C24 UNK     0       4.174  -0.071   2.258  0.00  0.00    +0.000 C 
ATOM     19  C25 UNK     0       2.306   2.444   0.047  0.00  0.00    +0.000 C 
ATOM     20  C26 UNK     0      -1.421   0.525   1.344  0.00  0.00    +0.000 C 
ATOM     21  C27 UNK     0      -0.512  -2.260   0.336  0.00  0.00    +0.000 C 
ATOM     22  C28 UNK     0      -4.331   0.890   0.533  0.00  0.00    +0.000 C 
ATOM     23  C29 UNK     0      -4.251  -2.175   0.592  0.00  0.00    +0.000 C 
ATOM     24  C31 UNK     0      -5.217   0.029   1.487  0.00  0.00    +0.000 C 
ATOM     25  C32 UNK     0       5.361   1.788  -0.544  0.00  0.00    +0.000 C 
ATOM     26  C33 UNK     0      -4.547  -1.310   1.836  0.00  0.00    +0.000 C 
ATOM     27  C35 UNK     0      -5.216   1.798  -0.349  0.00  0.00    +0.000 C 
ATOM     28  C36 UNK     0      -5.556   0.795   2.774  0.00  0.00    +0.000 C 
ENDROOT
BRANCH  17  29
ATOM     29  O2  UNK     0       6.397   0.704   1.720  0.00  0.00    +0.000 OA
ATOM     30  H78 UNK     0       7.235   0.376   1.300  0.00  0.00    +0.000 HD
ENDBRANCH  17  29
BRANCH   7  31
ATOM     31  O1  UNK     0       2.894   1.047  -2.635  0.00  0.00    +0.000 OA
ATOM     32  H74 UNK     0       2.766   0.779  -3.582  0.00  0.00    +0.000 HD
ENDBRANCH   7  31
BRANCH  18  33
ATOM     33  O3  UNK     0       3.530  -1.320   2.322  0.00  0.00    +0.000 OA
ATOM     34  H79 UNK     0       4.115  -1.923   2.851  0.00  0.00    +0.000 HD
ENDBRANCH  18  33
BRANCH  14  35
ATOM     35  C34 UNK     0      -5.177  -1.146  -1.559  0.00  0.00    +0.000 C 
ATOM     36  O6  UNK     0      -6.296  -1.619  -1.218  0.00  0.00    +0.000 OA
BRANCH  35  37
ATOM     37  O5  UNK     0      -5.084  -0.425  -2.749  0.00  0.00    +0.000 OA
ATOM     38  H84 UNK     0      -5.900  -0.267  -3.328  0.00  0.00    +0.000 HD
ENDBRANCH  35  37
ENDBRANCH  14  35
BRANCH   8  39
ATOM     39  C30 UNK     0       5.773  -0.601  -1.220  0.00  0.00    +0.000 C 
BRANCH  39  40
ATOM     40  O4  UNK     0       5.715  -0.157  -2.553  0.00  0.00    +0.000 OA
ATOM     41  H83 UNK     0       6.535   0.376  -2.725  0.00  0.00    +0.000 HD
ENDBRANCH  39  40
ENDBRANCH   8  39
TORSDOF 7
