REMARK  Name = C:\Users\Maximilian\Desktop\Conformers\converted_pdb\conformers_pdb\Madecassic Acid_conf_16.pdb
REMARK  13 active torsions:
REMARK  status: ('A' for Active; 'I' for Inactive)
REMARK    1  A    between atoms: C7_1  and  C21_15
REMARK    2  A    between atoms: C9_3  and  C25_19
REMARK    3  A    between atoms: C10_4  and  C27_21
REMARK    4  A    between atoms: C13_7  and  O1_34
REMARK    5  A    between atoms: C14_8  and  C32_25
REMARK    6  A    between atoms: C14_8  and  C30_29
REMARK    7  A    between atoms: C20_14  and  C34_38
REMARK    8  A    between atoms: C23_17  and  O2_32
REMARK    9  A    between atoms: C24_18  and  O3_36
REMARK   10  A    between atoms: C28_22  and  C35_27
REMARK   11  A    between atoms: C31_24  and  C36_28
REMARK   12  A    between atoms: C30_29  and  O4_30
REMARK   13  A    between atoms: C34_38  and  O5_40
REMARK                            x       y       z     vdW  Elec       q    Type
REMARK                         _______ _______ _______ _____ _____    ______ ____
ROOT
ATOM      1  C7  UNK     0      -0.481  -0.797   0.301  0.00  0.00    +0.000 C 
ATOM      2  C8  UNK     0      -1.137   0.595  -0.052  0.00  0.00    +0.000 C 
ATOM      3  C9  UNK     0      -2.739   0.696  -0.060  0.00  0.00    +0.000 C 
ATOM      4  C10 UNK     0       1.108  -0.748  -0.060  0.00  0.00    +0.000 C 
ATOM      5  C11 UNK     0      -3.318  -0.503  -0.914  0.00  0.00    +0.000 C 
ATOM      6  C12 UNK     0      -1.195  -1.928  -0.521  0.00  0.00    +0.000 C 
ATOM      7  C13 UNK     0      -2.732  -1.909  -0.574  0.00  0.00    +0.000 C 
ATOM      8  C14 UNK     0      -4.873  -0.442  -1.258  0.00  0.00    +0.000 C 
ATOM      9  C15 UNK     0       1.778   0.496   0.580  0.00  0.00    +0.000 C 
ATOM     10  C16 UNK     0       3.275   0.524   0.982  0.00  0.00    +0.000 C 
ATOM     11  C17 UNK     0      -3.125   2.016  -0.822  0.00  0.00    +0.000 C 
ATOM     12  C18 UNK     0      -0.435   1.744   0.719  0.00  0.00    +0.000 C 
ATOM     13  C19 UNK     0       1.825  -2.068   0.406  0.00  0.00    +0.000 C 
ATOM     14  C20 UNK     0       3.841  -0.888   1.445  0.00  0.00    +0.000 C 
ATOM     15  C21 UNK     0      -0.632  -1.099   1.828  0.00  0.00    +0.000 C 
ATOM     16  C22 UNK     0       2.705  -1.911   1.642  0.00  0.00    +0.000 C 
ATOM     17  C23 UNK     0      -5.148   0.939  -1.954  0.00  0.00    +0.000 C 
ATOM     18  C24 UNK     0      -4.627   2.158  -1.165  0.00  0.00    +0.000 C 
ATOM     19  C25 UNK     0      -3.357   0.791   1.382  0.00  0.00    +0.000 C 
ATOM     20  C26 UNK     0       1.058   1.617   0.819  0.00  0.00    +0.000 C 
ATOM     21  C27 UNK     0       1.387  -0.616  -1.591  0.00  0.00    +0.000 C 
ATOM     22  C28 UNK     0       4.200   1.236  -0.080  0.00  0.00    +0.000 C 
ATOM     23  C29 UNK     0       4.850  -1.431   0.386  0.00  0.00    +0.000 C 
ATOM     24  C31 UNK     0       5.699   0.995   0.289  0.00  0.00    +0.000 C 
ATOM     25  C32 UNK     0      -5.806  -0.622  -0.027  0.00  0.00    +0.000 C 
ATOM     26  C33 UNK     0       6.063  -0.510   0.208  0.00  0.00    +0.000 C 
ATOM     27  C35 UNK     0       3.876   2.740  -0.215  0.00  0.00    +0.000 C 
ATOM     28  C36 UNK     0       6.693   1.803  -0.562  0.00  0.00    +0.000 C 
ENDROOT
BRANCH  17  29
ATOM     29  O2  UNK     0      -6.511   1.098  -2.277  0.00  0.00    +0.000 OA
ATOM     30  H78 UNK     0      -7.001   1.368  -1.459  0.00  0.00    +0.000 HD
ENDBRANCH  17  29
BRANCH   7  31
ATOM     31  O1  UNK     0      -3.322  -2.577   0.505  0.00  0.00    +0.000 OA
ATOM     32  H74 UNK     0      -3.158  -2.078   1.338  0.00  0.00    +0.000 HD
ENDBRANCH   7  31
BRANCH  18  33
ATOM     33  O3  UNK     0      -4.815   3.300  -1.956  0.00  0.00    +0.000 OA
ATOM     34  H79 UNK     0      -4.612   4.084  -1.387  0.00  0.00    +0.000 HD
ENDBRANCH  18  33
BRANCH  14  35
ATOM     35  C34 UNK     0       4.539  -0.797   2.806  0.00  0.00    +0.000 C 
ATOM     36  O6  UNK     0       4.093  -0.041   3.708  0.00  0.00    +0.000 OA
BRANCH  35  37
ATOM     37  O5  UNK     0       5.580  -1.665   3.106  0.00  0.00    +0.000 OA
ATOM     38  H84 UNK     0       6.030  -1.643   4.014  0.00  0.00    +0.000 HD
ENDBRANCH  35  37
ENDBRANCH  14  35
BRANCH   8  39
ATOM     39  C30 UNK     0      -5.245  -1.550  -2.298  0.00  0.00    +0.000 C 
BRANCH  39  40
ATOM     40  O4  UNK     0      -5.338  -2.814  -1.692  0.00  0.00    +0.000 OA
ATOM     41  H83 UNK     0      -5.472  -3.461  -2.436  0.00  0.00    +0.000 HD
ENDBRANCH  39  40
ENDBRANCH   8  39
TORSDOF 7
