REMARK  Name = C:\Users\Maximilian\Desktop\Conformers\converted_pdb\conformers_pdb\Madecassic Acid_conf_43.pdb
REMARK  13 active torsions:
REMARK  status: ('A' for Active; 'I' for Inactive)
REMARK    1  A    between atoms: C7_1  and  C21_15
REMARK    2  A    between atoms: C9_3  and  C25_19
REMARK    3  A    between atoms: C10_4  and  C27_21
REMARK    4  A    between atoms: C13_7  and  O1_34
REMARK    5  A    between atoms: C14_8  and  C32_25
REMARK    6  A    between atoms: C14_8  and  C30_29
REMARK    7  A    between atoms: C20_14  and  C34_38
REMARK    8  A    between atoms: C23_17  and  O2_32
REMARK    9  A    between atoms: C24_18  and  O3_36
REMARK   10  A    between atoms: C28_22  and  C35_27
REMARK   11  A    between atoms: C31_24  and  C36_28
REMARK   12  A    between atoms: C30_29  and  O4_30
REMARK   13  A    between atoms: C34_38  and  O5_40
REMARK                            x       y       z     vdW  Elec       q    Type
REMARK                         _______ _______ _______ _____ _____    ______ ____
ROOT
ATOM      1  C7  UNK     0      -0.255  -0.302   1.240  0.00  0.00    +0.000 C 
ATOM      2  C8  UNK     0      -1.006   0.778   0.374  0.00  0.00    +0.000 C 
ATOM      3  C9  UNK     0      -2.584   0.819   0.486  0.00  0.00    +0.000 C 
ATOM      4  C10 UNK     0       1.129  -0.619   0.475  0.00  0.00    +0.000 C 
ATOM      5  C11 UNK     0      -3.089  -0.578  -0.053  0.00  0.00    +0.000 C 
ATOM      6  C12 UNK     0      -1.145  -1.583   1.486  0.00  0.00    +0.000 C 
ATOM      7  C13 UNK     0      -2.462  -1.812   0.685  0.00  0.00    +0.000 C 
ATOM      8  C14 UNK     0      -4.625  -0.703  -0.483  0.00  0.00    +0.000 C 
ATOM      9  C15 UNK     0       1.880   0.723   0.205  0.00  0.00    +0.000 C 
ATOM     10  C16 UNK     0       3.389   0.737  -0.092  0.00  0.00    +0.000 C 
ATOM     11  C17 UNK     0      -3.117   1.955  -0.446  0.00  0.00    +0.000 C 
ATOM     12  C18 UNK     0      -0.248   2.120   0.437  0.00  0.00    +0.000 C 
ATOM     13  C19 UNK     0       2.042  -1.589   1.315  0.00  0.00    +0.000 C 
ATOM     14  C20 UNK     0       4.145  -0.173   0.927  0.00  0.00    +0.000 C 
ATOM     15  C21 UNK     0       0.083   0.277   2.670  0.00  0.00    +0.000 C 
ATOM     16  C22 UNK     0       3.524  -1.595   0.902  0.00  0.00    +0.000 C 
ATOM     17  C23 UNK     0      -4.970   0.517  -1.409  0.00  0.00    +0.000 C 
ATOM     18  C24 UNK     0      -4.620   1.873  -0.758  0.00  0.00    +0.000 C 
ATOM     19  C25 UNK     0      -3.036   1.123   1.937  0.00  0.00    +0.000 C 
ATOM     20  C26 UNK     0       1.229   1.922   0.171  0.00  0.00    +0.000 C 
ATOM     21  C27 UNK     0       0.858  -1.316  -0.900  0.00  0.00    +0.000 C 
ATOM     22  C28 UNK     0       3.711   0.412  -1.591  0.00  0.00    +0.000 C 
ATOM     23  C29 UNK     0       5.655  -0.229   0.582  0.00  0.00    +0.000 C 
ATOM     24  C31 UNK     0       5.249   0.399  -1.835  0.00  0.00    +0.000 C 
ATOM     25  C32 UNK     0      -5.624  -0.780   0.711  0.00  0.00    +0.000 C 
ATOM     26  C33 UNK     0       5.937  -0.586  -0.877  0.00  0.00    +0.000 C 
ATOM     27  C35 UNK     0       3.019   1.423  -2.532  0.00  0.00    +0.000 C 
ATOM     28  C36 UNK     0       5.617   0.024  -3.283  0.00  0.00    +0.000 C 
ENDROOT
BRANCH  17  29
ATOM     29  O2  UNK     0      -6.311   0.495  -1.848  0.00  0.00    +0.000 OA
ATOM     30  H78 UNK     0      -6.878   0.939  -1.165  0.00  0.00    +0.000 HD
ENDBRANCH  17  29
BRANCH   7  31
ATOM     31  O1  UNK     0      -3.396  -2.400   1.552  0.00  0.00    +0.000 OA
ATOM     32  H74 UNK     0      -3.119  -3.344   1.690  0.00  0.00    +0.000 HD
ENDBRANCH   7  31
BRANCH  18  33
ATOM     33  O3  UNK     0      -4.994   2.936  -1.600  0.00  0.00    +0.000 OA
ATOM     34  H79 UNK     0      -4.507   2.832  -2.459  0.00  0.00    +0.000 HD
ENDBRANCH  18  33
BRANCH  14  35
ATOM     35  C34 UNK     0       4.052   0.398   2.340  0.00  0.00    +0.000 C 
ATOM     36  O6  UNK     0       4.400  -0.306   3.328  0.00  0.00    +0.000 OA
BRANCH  35  37
ATOM     37  O5  UNK     0       3.646   1.713   2.557  0.00  0.00    +0.000 OA
ATOM     38  H84 UNK     0       3.599   2.095   3.494  0.00  0.00    +0.000 HD
ENDBRANCH  35  37
ENDBRANCH  14  35
BRANCH   8  39
ATOM     39  C30 UNK     0      -4.801  -2.010  -1.324  0.00  0.00    +0.000 C 
BRANCH  39  40
ATOM     40  O4  UNK     0      -6.125  -2.168  -1.759  0.00  0.00    +0.000 OA
ATOM     41  H83 UNK     0      -6.142  -2.997  -2.305  0.00  0.00    +0.000 HD
ENDBRANCH  39  40
ENDBRANCH   8  39
TORSDOF 7
