REMARK  Name = C:\Users\Maximilian\Desktop\Conformers\converted_pdb\conformers_pdb\Madecassic Acid_conf_1.pdb
REMARK  13 active torsions:
REMARK  status: ('A' for Active; 'I' for Inactive)
REMARK    1  A    between atoms: C7_1  and  C21_15
REMARK    2  A    between atoms: C9_3  and  C25_19
REMARK    3  A    between atoms: C10_4  and  C27_21
REMARK    4  A    between atoms: C13_7  and  O1_34
REMARK    5  A    between atoms: C14_8  and  C32_25
REMARK    6  A    between atoms: C14_8  and  C30_29
REMARK    7  A    between atoms: C20_14  and  C34_38
REMARK    8  A    between atoms: C23_17  and  O2_32
REMARK    9  A    between atoms: C24_18  and  O3_36
REMARK   10  A    between atoms: C28_22  and  C35_27
REMARK   11  A    between atoms: C31_24  and  C36_28
REMARK   12  A    between atoms: C30_29  and  O4_30
REMARK   13  A    between atoms: C34_38  and  O5_40
REMARK                            x       y       z     vdW  Elec       q    Type
REMARK                         _______ _______ _______ _____ _____    ______ ____
ROOT
ATOM      1  C7  UNK     0      -0.306  -0.152   0.817  0.00  0.00    +0.000 C 
ATOM      2  C8  UNK     0      -1.036   0.584  -0.374  0.00  0.00    +0.000 C 
ATOM      3  C9  UNK     0      -2.591   0.931  -0.202  0.00  0.00    +0.000 C 
ATOM      4  C10 UNK     0       1.132  -0.701   0.299  0.00  0.00    +0.000 C 
ATOM      5  C11 UNK     0      -3.325  -0.383   0.286  0.00  0.00    +0.000 C 
ATOM      6  C12 UNK     0      -1.195  -1.335   1.320  0.00  0.00    +0.000 C 
ATOM      7  C13 UNK     0      -2.679  -1.002   1.565  0.00  0.00    +0.000 C 
ATOM      8  C14 UNK     0      -4.917  -0.384   0.224  0.00  0.00    +0.000 C 
ATOM      9  C15 UNK     0       1.933   0.437  -0.368  0.00  0.00    +0.000 C 
ATOM     10  C16 UNK     0       3.473   0.400  -0.481  0.00  0.00    +0.000 C 
ATOM     11  C17 UNK     0      -3.155   1.287  -1.619  0.00  0.00    +0.000 C 
ATOM     12  C18 UNK     0      -0.175   1.748  -0.929  0.00  0.00    +0.000 C 
ATOM     13  C19 UNK     0       1.952  -1.304   1.492  0.00  0.00    +0.000 C 
ATOM     14  C20 UNK     0       4.164  -0.223   0.788  0.00  0.00    +0.000 C 
ATOM     15  C21 UNK     0      -0.092   0.838   2.009  0.00  0.00    +0.000 C 
ATOM     16  C22 UNK     0       3.436  -1.532   1.190  0.00  0.00    +0.000 C 
ATOM     17  C23 UNK     0      -5.353   0.035  -1.225  0.00  0.00    +0.000 C 
ATOM     18  C24 UNK     0      -4.694   1.344  -1.704  0.00  0.00    +0.000 C 
ATOM     19  C25 UNK     0      -2.841   2.166   0.734  0.00  0.00    +0.000 C 
ATOM     20  C26 UNK     0       1.301   1.473  -0.970  0.00  0.00    +0.000 C 
ATOM     21  C27 UNK     0       1.000  -1.833  -0.775  0.00  0.00    +0.000 C 
ATOM     22  C28 UNK     0       4.032  -0.239  -1.797  0.00  0.00    +0.000 C 
ATOM     23  C29 UNK     0       5.664  -0.574   0.495  0.00  0.00    +0.000 C 
ATOM     24  C31 UNK     0       5.556   0.093  -1.959  0.00  0.00    +0.000 C 
ATOM     25  C32 UNK     0      -5.572   0.542   1.284  0.00  0.00    +0.000 C 
ATOM     26  C33 UNK     0       6.268   0.310  -0.599  0.00  0.00    +0.000 C 
ATOM     27  C35 UNK     0       3.261   0.197  -3.058  0.00  0.00    +0.000 C 
ATOM     28  C36 UNK     0       6.280  -0.994  -2.774  0.00  0.00    +0.000 C 
ENDROOT
BRANCH  17  29
ATOM     29  O2  UNK     0      -6.750   0.190  -1.299  0.00  0.00    +0.000 OA
ATOM     30  H78 UNK     0      -7.035  -0.122  -2.199  0.00  0.00    +0.000 HD
ENDBRANCH  17  29
BRANCH   7  31
ATOM     31  O1  UNK     0      -2.839  -0.194   2.700  0.00  0.00    +0.000 OA
ATOM     32  H74 UNK     0      -2.645  -0.760   3.493  0.00  0.00    +0.000 HD
ENDBRANCH   7  31
BRANCH  18  33
ATOM     33  O3  UNK     0      -5.087   1.635  -3.023  0.00  0.00    +0.000 OA
ATOM     34  H79 UNK     0      -4.784   0.889  -3.605  0.00  0.00    +0.000 HD
ENDBRANCH  18  33
BRANCH  14  35
ATOM     35  C34 UNK     0       4.121   0.757   1.960  0.00  0.00    +0.000 C 
ATOM     36  O6  UNK     0       4.582   0.414   3.084  0.00  0.00    +0.000 OA
BRANCH  35  37
ATOM     37  O5  UNK     0       3.579   2.032   1.817  0.00  0.00    +0.000 OA
ATOM     38  H84 UNK     0       3.542   2.674   2.599  0.00  0.00    +0.000 HD
ENDBRANCH  35  37
ENDBRANCH  14  35
BRANCH   8  39
ATOM     39  C30 UNK     0      -5.441  -1.839   0.491  0.00  0.00    +0.000 C 
BRANCH  39  40
ATOM     40  O4  UNK     0      -6.800  -1.991   0.162  0.00  0.00    +0.000 OA
ATOM     41  H83 UNK     0      -7.326  -1.812   0.984  0.00  0.00    +0.000 HD
ENDBRANCH  39  40
ENDBRANCH   8  39
TORSDOF 7
