REMARK  Name = C:\Users\Maximilian\Desktop\Conformers\converted_pdb\conformers_pdb\Madecassic Acid_conf_48.pdb
REMARK  13 active torsions:
REMARK  status: ('A' for Active; 'I' for Inactive)
REMARK    1  A    between atoms: C7_1  and  C21_15
REMARK    2  A    between atoms: C9_3  and  C25_19
REMARK    3  A    between atoms: C10_4  and  C27_21
REMARK    4  A    between atoms: C13_7  and  O1_34
REMARK    5  A    between atoms: C14_8  and  C32_25
REMARK    6  A    between atoms: C14_8  and  C30_29
REMARK    7  A    between atoms: C20_14  and  C34_38
REMARK    8  A    between atoms: C23_17  and  O2_32
REMARK    9  A    between atoms: C24_18  and  O3_36
REMARK   10  A    between atoms: C28_22  and  C35_27
REMARK   11  A    between atoms: C31_24  and  C36_28
REMARK   12  A    between atoms: C30_29  and  O4_30
REMARK   13  A    between atoms: C34_38  and  O5_40
REMARK                            x       y       z     vdW  Elec       q    Type
REMARK                         _______ _______ _______ _____ _____    ______ ____
ROOT
ATOM      1  C7  UNK     0       0.266   0.504  -0.656  0.00  0.00    +0.000 C 
ATOM      2  C8  UNK     0       1.094   0.076   0.624  0.00  0.00    +0.000 C 
ATOM      3  C9  UNK     0       2.665   0.390   0.679  0.00  0.00    +0.000 C 
ATOM      4  C10 UNK     0      -1.172  -0.255  -0.624  0.00  0.00    +0.000 C 
ATOM      5  C11 UNK     0       3.304  -0.029  -0.703  0.00  0.00    +0.000 C 
ATOM      6  C12 UNK     0       1.081   0.134  -1.942  0.00  0.00    +0.000 C 
ATOM      7  C13 UNK     0       2.558   0.568  -1.936  0.00  0.00    +0.000 C 
ATOM      8  C14 UNK     0       4.897  -0.004  -0.789  0.00  0.00    +0.000 C 
ATOM      9  C15 UNK     0      -1.859  -0.046   0.741  0.00  0.00    +0.000 C 
ATOM     10  C16 UNK     0      -3.394   0.027   0.853  0.00  0.00    +0.000 C 
ATOM     11  C17 UNK     0       3.297  -0.495   1.831  0.00  0.00    +0.000 C 
ATOM     12  C18 UNK     0       0.325   0.448   1.914  0.00  0.00    +0.000 C 
ATOM     13  C19 UNK     0      -2.154   0.219  -1.760  0.00  0.00    +0.000 C 
ATOM     14  C20 UNK     0      -3.997   1.106  -0.140  0.00  0.00    +0.000 C 
ATOM     15  C21 UNK     0       0.022   2.041  -0.657  0.00  0.00    +0.000 C 
ATOM     16  C22 UNK     0      -3.089   1.380  -1.382  0.00  0.00    +0.000 C 
ATOM     17  C23 UNK     0       5.551  -0.382   0.601  0.00  0.00    +0.000 C 
ATOM     18  C24 UNK     0       4.617  -1.221   1.498  0.00  0.00    +0.000 C 
ATOM     19  C25 UNK     0       2.974   1.880   1.041  0.00  0.00    +0.000 C 
ATOM     20  C26 UNK     0      -1.135   0.092   1.878  0.00  0.00    +0.000 C 
ATOM     21  C27 UNK     0      -1.014  -1.802  -0.828  0.00  0.00    +0.000 C 
ATOM     22  C28 UNK     0      -4.095  -1.370   0.774  0.00  0.00    +0.000 C 
ATOM     23  C29 UNK     0      -5.399   0.645  -0.648  0.00  0.00    +0.000 C 
ATOM     24  C31 UNK     0      -5.638  -1.258   1.020  0.00  0.00    +0.000 C 
ATOM     25  C32 UNK     0       5.433   1.370  -1.278  0.00  0.00    +0.000 C 
ATOM     26  C33 UNK     0      -6.236   0.069   0.494  0.00  0.00    +0.000 C 
ATOM     27  C35 UNK     0      -3.475  -2.363   1.782  0.00  0.00    +0.000 C 
ATOM     28  C36 UNK     0      -6.387  -2.452   0.398  0.00  0.00    +0.000 C 
ENDROOT
BRANCH  17  29
ATOM     29  O2  UNK     0       5.977   0.760   1.305  0.00  0.00    +0.000 OA
ATOM     30  H78 UNK     0       6.614   0.459   2.005  0.00  0.00    +0.000 HD
ENDBRANCH  17  29
BRANCH   7  31
ATOM     31  O1  UNK     0       2.675   1.963  -2.018  0.00  0.00    +0.000 OA
ATOM     32  H74 UNK     0       2.400   2.227  -2.935  0.00  0.00    +0.000 HD
ENDBRANCH   7  31
BRANCH  18  33
ATOM     33  O3  UNK     0       4.336  -2.461   0.898  0.00  0.00    +0.000 OA
ATOM     34  H79 UNK     0       5.159  -3.012   0.971  0.00  0.00    +0.000 HD
ENDBRANCH  18  33
BRANCH  14  35
ATOM     35  C34 UNK     0      -4.128   2.435   0.606  0.00  0.00    +0.000 C 
ATOM     36  O6  UNK     0      -5.101   3.210   0.393  0.00  0.00    +0.000 OA
BRANCH  35  37
ATOM     37  O5  UNK     0      -3.116   2.845   1.472  0.00  0.00    +0.000 OA
ATOM     38  H84 UNK     0      -3.169   3.736   1.950  0.00  0.00    +0.000 HD
ENDBRANCH  35  37
ENDBRANCH  14  35
BRANCH   8  39
ATOM     39  C30 UNK     0       5.361  -1.066  -1.845  0.00  0.00    +0.000 C 
BRANCH  39  40
ATOM     40  O4  UNK     0       6.758  -1.070  -1.983  0.00  0.00    +0.000 OA
ATOM     41  H83 UNK     0       6.973  -1.797  -2.624  0.00  0.00    +0.000 HD
ENDBRANCH  39  40
ENDBRANCH   8  39
TORSDOF 7
