REMARK  Name = C:\Users\Maximilian\Desktop\Conformers\converted_pdb\conformers_pdb\Madecassic Acid_conf_9.pdb
REMARK  13 active torsions:
REMARK  status: ('A' for Active; 'I' for Inactive)
REMARK    1  A    between atoms: C7_1  and  C21_15
REMARK    2  A    between atoms: C9_3  and  C25_19
REMARK    3  A    between atoms: C10_4  and  C27_21
REMARK    4  A    between atoms: C13_7  and  O1_34
REMARK    5  A    between atoms: C14_8  and  C32_25
REMARK    6  A    between atoms: C14_8  and  C30_29
REMARK    7  A    between atoms: C20_14  and  C34_38
REMARK    8  A    between atoms: C23_17  and  O2_32
REMARK    9  A    between atoms: C24_18  and  O3_36
REMARK   10  A    between atoms: C28_22  and  C35_27
REMARK   11  A    between atoms: C31_24  and  C36_28
REMARK   12  A    between atoms: C30_29  and  O4_30
REMARK   13  A    between atoms: C34_38  and  O5_40
REMARK                            x       y       z     vdW  Elec       q    Type
REMARK                         _______ _______ _______ _____ _____    ______ ____
ROOT
ATOM      1  C7  UNK     0      -0.375  -0.790   0.017  0.00  0.00    +0.000 C 
ATOM      2  C8  UNK     0      -1.053   0.600   0.305  0.00  0.00    +0.000 C 
ATOM      3  C9  UNK     0      -2.634   0.616   0.544  0.00  0.00    +0.000 C 
ATOM      4  C10 UNK     0       1.118  -0.512  -0.529  0.00  0.00    +0.000 C 
ATOM      5  C11 UNK     0      -3.316  -0.156  -0.631  0.00  0.00    +0.000 C 
ATOM      6  C12 UNK     0      -1.215  -1.578  -1.047  0.00  0.00    +0.000 C 
ATOM      7  C13 UNK     0      -2.742  -1.592  -0.819  0.00  0.00    +0.000 C 
ATOM      8  C14 UNK     0      -4.909  -0.025  -0.767  0.00  0.00    +0.000 C 
ATOM      9  C15 UNK     0       1.900   0.226   0.570  0.00  0.00    +0.000 C 
ATOM     10  C16 UNK     0       3.423   0.079   0.734  0.00  0.00    +0.000 C 
ATOM     11  C17 UNK     0      -3.100   2.095   0.428  0.00  0.00    +0.000 C 
ATOM     12  C18 UNK     0      -0.223   1.429   1.329  0.00  0.00    +0.000 C 
ATOM     13  C19 UNK     0       1.793  -1.868  -0.938  0.00  0.00    +0.000 C 
ATOM     14  C20 UNK     0       3.925  -1.378   0.417  0.00  0.00    +0.000 C 
ATOM     15  C21 UNK     0      -0.286  -1.636   1.346  0.00  0.00    +0.000 C 
ATOM     16  C22 UNK     0       3.323  -1.849  -0.934  0.00  0.00    +0.000 C 
ATOM     17  C23 UNK     0      -5.548   1.161   0.078  0.00  0.00    +0.000 C 
ATOM     18  C24 UNK     0      -4.621   2.351   0.460  0.00  0.00    +0.000 C 
ATOM     19  C25 UNK     0      -3.033   0.060   1.940  0.00  0.00    +0.000 C 
ATOM     20  C26 UNK     0       1.258   1.114   1.373  0.00  0.00    +0.000 C 
ATOM     21  C27 UNK     0       1.184   0.421  -1.785  0.00  0.00    +0.000 C 
ATOM     22  C28 UNK     0       4.263   1.144  -0.048  0.00  0.00    +0.000 C 
ATOM     23  C29 UNK     0       5.485  -1.431   0.285  0.00  0.00    +0.000 C 
ATOM     24  C31 UNK     0       5.769   1.095   0.387  0.00  0.00    +0.000 C 
ATOM     25  C32 UNK     0      -5.633  -1.350  -0.380  0.00  0.00    +0.000 C 
ATOM     26  C33 UNK     0       6.182  -0.269   0.994  0.00  0.00    +0.000 C 
ATOM     27  C35 UNK     0       3.726   2.579   0.114  0.00  0.00    +0.000 C 
ATOM     28  C36 UNK     0       6.695   1.466  -0.784  0.00  0.00    +0.000 C 
ENDROOT
BRANCH  17  29
ATOM     29  O2  UNK     0      -6.178   0.678   1.246  0.00  0.00    +0.000 OA
ATOM     30  H78 UNK     0      -6.885   1.328   1.500  0.00  0.00    +0.000 HD
ENDBRANCH  17  29
BRANCH   7  31
ATOM     31  O1  UNK     0      -3.074  -2.433   0.254  0.00  0.00    +0.000 OA
ATOM     32  H74 UNK     0      -2.973  -3.367  -0.065  0.00  0.00    +0.000 HD
ENDBRANCH   7  31
BRANCH  18  33
ATOM     33  O3  UNK     0      -4.922   3.451  -0.366  0.00  0.00    +0.000 OA
ATOM     34  H79 UNK     0      -4.575   4.263   0.090  0.00  0.00    +0.000 HD
ENDBRANCH  18  33
BRANCH  14  35
ATOM     35  C34 UNK     0       3.520  -2.343   1.529  0.00  0.00    +0.000 C 
ATOM     36  O6  UNK     0       3.357  -1.938   2.712  0.00  0.00    +0.000 OA
BRANCH  35  37
ATOM     37  O5  UNK     0       3.416  -3.707   1.265  0.00  0.00    +0.000 OA
ATOM     38  H84 UNK     0       3.176  -4.363   1.998  0.00  0.00    +0.000 HD
ENDBRANCH  35  37
ENDBRANCH  14  35
BRANCH   8  39
ATOM     39  C30 UNK     0      -5.225   0.231  -2.278  0.00  0.00    +0.000 C 
BRANCH  39  40
ATOM     40  O4  UNK     0      -6.604   0.198  -2.535  0.00  0.00    +0.000 OA
ATOM     41  H83 UNK     0      -6.713   0.418  -3.497  0.00  0.00    +0.000 HD
ENDBRANCH  39  40
ENDBRANCH   8  39
TORSDOF 7
