REMARK  Name = C:\Users\Maximilian\Desktop\Conformers\converted_pdb\conformers_pdb\Madecassic Acid_conf_27.pdb
REMARK  13 active torsions:
REMARK  status: ('A' for Active; 'I' for Inactive)
REMARK    1  A    between atoms: C7_1  and  C21_15
REMARK    2  A    between atoms: C9_3  and  C25_19
REMARK    3  A    between atoms: C10_4  and  C27_21
REMARK    4  A    between atoms: C13_7  and  O1_34
REMARK    5  A    between atoms: C14_8  and  C32_25
REMARK    6  A    between atoms: C14_8  and  C30_29
REMARK    7  A    between atoms: C20_14  and  C34_38
REMARK    8  A    between atoms: C23_17  and  O2_32
REMARK    9  A    between atoms: C24_18  and  O3_36
REMARK   10  A    between atoms: C28_22  and  C35_27
REMARK   11  A    between atoms: C31_24  and  C36_28
REMARK   12  A    between atoms: C30_29  and  O4_30
REMARK   13  A    between atoms: C34_38  and  O5_40
REMARK                            x       y       z     vdW  Elec       q    Type
REMARK                         _______ _______ _______ _____ _____    ______ ____
ROOT
ATOM      1  C7  UNK     0       0.409  -0.987  -0.011  0.00  0.00    +0.000 C 
ATOM      2  C8  UNK     0       1.024   0.320  -0.652  0.00  0.00    +0.000 C 
ATOM      3  C9  UNK     0       2.614   0.377  -0.861  0.00  0.00    +0.000 C 
ATOM      4  C10 UNK     0      -1.123  -0.686   0.445  0.00  0.00    +0.000 C 
ATOM      5  C11 UNK     0       3.299  -0.068   0.494  0.00  0.00    +0.000 C 
ATOM      6  C12 UNK     0       1.267  -1.422   1.223  0.00  0.00    +0.000 C 
ATOM      7  C13 UNK     0       2.788  -1.453   1.007  0.00  0.00    +0.000 C 
ATOM      8  C14 UNK     0       4.863   0.205   0.636  0.00  0.00    +0.000 C 
ATOM      9  C15 UNK     0      -1.918   0.009  -0.683  0.00  0.00    +0.000 C 
ATOM     10  C16 UNK     0      -3.465   0.020  -0.706  0.00  0.00    +0.000 C 
ATOM     11  C17 UNK     0       3.000   1.876  -1.117  0.00  0.00    +0.000 C 
ATOM     12  C18 UNK     0       0.193   0.774  -1.876  0.00  0.00    +0.000 C 
ATOM     13  C19 UNK     0      -1.858  -2.015   0.832  0.00  0.00    +0.000 C 
ATOM     14  C20 UNK     0      -4.110  -1.325  -0.186  0.00  0.00    +0.000 C 
ATOM     15  C21 UNK     0       0.433  -2.151  -1.053  0.00  0.00    +0.000 C 
ATOM     16  C22 UNK     0      -3.365  -1.850   1.063  0.00  0.00    +0.000 C 
ATOM     17  C23 UNK     0       5.128   1.719   0.295  0.00  0.00    +0.000 C 
ATOM     18  C24 UNK     0       4.509   2.176  -1.045  0.00  0.00    +0.000 C 
ATOM     19  C25 UNK     0       3.095  -0.457  -2.102  0.00  0.00    +0.000 C 
ATOM     20  C26 UNK     0      -1.290   0.699  -1.666  0.00  0.00    +0.000 C 
ATOM     21  C27 UNK     0      -1.186   0.249   1.699  0.00  0.00    +0.000 C 
ATOM     22  C28 UNK     0      -4.131   1.278  -0.043  0.00  0.00    +0.000 C 
ATOM     23  C29 UNK     0      -5.607  -1.092   0.225  0.00  0.00    +0.000 C 
ATOM     24  C31 UNK     0      -5.650   1.363  -0.427  0.00  0.00    +0.000 C 
ATOM     25  C32 UNK     0       5.728  -0.727  -0.257  0.00  0.00    +0.000 C 
ATOM     26  C33 UNK     0      -6.282  -0.035  -0.651  0.00  0.00    +0.000 C 
ATOM     27  C35 UNK     0      -3.417   2.600  -0.392  0.00  0.00    +0.000 C 
ATOM     28  C36 UNK     0      -6.449   2.138   0.640  0.00  0.00    +0.000 C 
ENDROOT
BRANCH  17  29
ATOM     29  O2  UNK     0       6.500   2.042   0.326  0.00  0.00    +0.000 OA
ATOM     30  H78 UNK     0       6.924   1.701  -0.502  0.00  0.00    +0.000 HD
ENDBRANCH  17  29
BRANCH   7  31
ATOM     31  O1  UNK     0       3.156  -2.515   0.170  0.00  0.00    +0.000 OA
ATOM     32  H74 UNK     0       3.010  -3.355   0.675  0.00  0.00    +0.000 HD
ENDBRANCH   7  31
BRANCH  18  33
ATOM     33  O3  UNK     0       4.732   3.550  -1.243  0.00  0.00    +0.000 OA
ATOM     34  H79 UNK     0       4.313   4.039  -0.488  0.00  0.00    +0.000 HD
ENDBRANCH  18  33
BRANCH  14  35
ATOM     35  C34 UNK     0      -4.040  -2.378  -1.295  0.00  0.00    +0.000 C 
ATOM     36  O6  UNK     0      -4.916  -3.283  -1.388  0.00  0.00    +0.000 OA
BRANCH  35  37
ATOM     37  O5  UNK     0      -2.980  -2.373  -2.202  0.00  0.00    +0.000 OA
ATOM     38  H84 UNK     0      -2.941  -3.042  -2.966  0.00  0.00    +0.000 HD
ENDBRANCH  35  37
ENDBRANCH  14  35
BRANCH   8  39
ATOM     39  C30 UNK     0       5.299  -0.045   2.121  0.00  0.00    +0.000 C 
BRANCH  39  40
ATOM     40  O4  UNK     0       6.592   0.445   2.378  0.00  0.00    +0.000 OA
ATOM     41  H83 UNK     0       7.157  -0.320   2.665  0.00  0.00    +0.000 HD
ENDBRANCH  39  40
ENDBRANCH   8  39
TORSDOF 7
