REMARK  Name = C:\Users\Maximilian\Desktop\Conformers\converted_pdb\conformers_pdb\Madecassic Acid_conf_37.pdb
REMARK  13 active torsions:
REMARK  status: ('A' for Active; 'I' for Inactive)
REMARK    1  A    between atoms: C7_1  and  C21_15
REMARK    2  A    between atoms: C9_3  and  C25_19
REMARK    3  A    between atoms: C10_4  and  C27_21
REMARK    4  A    between atoms: C13_7  and  O1_34
REMARK    5  A    between atoms: C14_8  and  C32_25
REMARK    6  A    between atoms: C14_8  and  C30_29
REMARK    7  A    between atoms: C20_14  and  C34_38
REMARK    8  A    between atoms: C23_17  and  O2_32
REMARK    9  A    between atoms: C24_18  and  O3_36
REMARK   10  A    between atoms: C28_22  and  C35_27
REMARK   11  A    between atoms: C31_24  and  C36_28
REMARK   12  A    between atoms: C30_29  and  O4_30
REMARK   13  A    between atoms: C34_38  and  O5_40
REMARK                            x       y       z     vdW  Elec       q    Type
REMARK                         _______ _______ _______ _____ _____    ______ ____
ROOT
ATOM      1  C7  UNK     0       0.244  -0.936  -0.023  0.00  0.00    +0.000 C 
ATOM      2  C8  UNK     0       0.917   0.206  -0.881  0.00  0.00    +0.000 C 
ATOM      3  C9  UNK     0       2.424   0.018  -1.389  0.00  0.00    +0.000 C 
ATOM      4  C10 UNK     0      -1.022  -0.278   0.735  0.00  0.00    +0.000 C 
ATOM      5  C11 UNK     0       3.275  -0.579  -0.199  0.00  0.00    +0.000 C 
ATOM      6  C12 UNK     0       1.257  -1.558   0.999  0.00  0.00    +0.000 C 
ATOM      7  C13 UNK     0       2.647  -1.865   0.421  0.00  0.00    +0.000 C 
ATOM      8  C14 UNK     0       4.856  -0.627  -0.400  0.00  0.00    +0.000 C 
ATOM      9  C15 UNK     0      -1.979   0.338  -0.316  0.00  0.00    +0.000 C 
ATOM     10  C16 UNK     0      -3.476   0.533  -0.019  0.00  0.00    +0.000 C 
ATOM     11  C17 UNK     0       2.990   1.447  -1.774  0.00  0.00    +0.000 C 
ATOM     12  C18 UNK     0      -0.075   0.687  -1.972  0.00  0.00    +0.000 C 
ATOM     13  C19 UNK     0      -1.746  -1.367   1.604  0.00  0.00    +0.000 C 
ATOM     14  C20 UNK     0      -4.054  -0.741   0.678  0.00  0.00    +0.000 C 
ATOM     15  C21 UNK     0      -0.254  -2.100  -0.954  0.00  0.00    +0.000 C 
ATOM     16  C22 UNK     0      -3.212  -1.056   1.944  0.00  0.00    +0.000 C 
ATOM     17  C23 UNK     0       5.356   0.591  -1.279  0.00  0.00    +0.000 C 
ATOM     18  C24 UNK     0       4.398   1.792  -1.244  0.00  0.00    +0.000 C 
ATOM     19  C25 UNK     0       2.521  -0.852  -2.684  0.00  0.00    +0.000 C 
ATOM     20  C26 UNK     0      -1.496   0.844  -1.480  0.00  0.00    +0.000 C 
ATOM     21  C27 UNK     0      -0.627   0.904   1.693  0.00  0.00    +0.000 C 
ATOM     22  C28 UNK     0      -3.774   1.864   0.761  0.00  0.00    +0.000 C 
ATOM     23  C29 UNK     0      -5.543  -0.527   1.050  0.00  0.00    +0.000 C 
ATOM     24  C31 UNK     0      -5.296   1.990   1.073  0.00  0.00    +0.000 C 
ATOM     25  C32 UNK     0       5.317  -1.975  -1.022  0.00  0.00    +0.000 C 
ATOM     26  C33 UNK     0      -5.794   0.755   1.840  0.00  0.00    +0.000 C 
ATOM     27  C35 UNK     0      -3.284   3.097  -0.032  0.00  0.00    +0.000 C 
ATOM     28  C36 UNK     0      -5.636   3.252   1.887  0.00  0.00    +0.000 C 
ENDROOT
BRANCH  17  29
ATOM     29  O2  UNK     0       5.570   0.225  -2.622  0.00  0.00    +0.000 OA
ATOM     30  H78 UNK     0       6.541   0.053  -2.739  0.00  0.00    +0.000 HD
ENDBRANCH  17  29
BRANCH   7  31
ATOM     31  O1  UNK     0       2.586  -2.926  -0.493  0.00  0.00    +0.000 OA
ATOM     32  H74 UNK     0       2.432  -3.757   0.029  0.00  0.00    +0.000 HD
ENDBRANCH   7  31
BRANCH  18  33
ATOM     33  O3  UNK     0       4.314   2.302   0.064  0.00  0.00    +0.000 OA
ATOM     34  H79 UNK     0       4.084   3.265  -0.012  0.00  0.00    +0.000 HD
ENDBRANCH  18  33
BRANCH  14  35
ATOM     35  C34 UNK     0      -4.029  -1.941  -0.267  0.00  0.00    +0.000 C 
ATOM     36  O6  UNK     0      -4.060  -1.778  -1.519  0.00  0.00    +0.000 OA
BRANCH  35  37
ATOM     37  O5  UNK     0      -4.053  -3.235   0.247  0.00  0.00    +0.000 OA
ATOM     38  H84 UNK     0      -4.053  -4.040  -0.370  0.00  0.00    +0.000 HD
ENDBRANCH  35  37
ENDBRANCH  14  35
BRANCH   8  39
ATOM     39  C30 UNK     0       5.547  -0.518   1.006  0.00  0.00    +0.000 C 
BRANCH  39  40
ATOM     40  O4  UNK     0       6.949  -0.563   0.903  0.00  0.00    +0.000 OA
ATOM     41  H83 UNK     0       7.224  -1.510   1.024  0.00  0.00    +0.000 HD
ENDBRANCH  39  40
ENDBRANCH   8  39
TORSDOF 7
