REMARK  Name = C:\Users\Maximilian\Desktop\Conformers\converted_pdb\conformers_pdb\Madecassic Acid_conf_30.pdb
REMARK  13 active torsions:
REMARK  status: ('A' for Active; 'I' for Inactive)
REMARK    1  A    between atoms: C7_1  and  C21_15
REMARK    2  A    between atoms: C9_3  and  C25_19
REMARK    3  A    between atoms: C10_4  and  C27_21
REMARK    4  A    between atoms: C13_7  and  O1_34
REMARK    5  A    between atoms: C14_8  and  C32_25
REMARK    6  A    between atoms: C14_8  and  C30_29
REMARK    7  A    between atoms: C20_14  and  C34_38
REMARK    8  A    between atoms: C23_17  and  O2_32
REMARK    9  A    between atoms: C24_18  and  O3_36
REMARK   10  A    between atoms: C28_22  and  C35_27
REMARK   11  A    between atoms: C31_24  and  C36_28
REMARK   12  A    between atoms: C30_29  and  O4_30
REMARK   13  A    between atoms: C34_38  and  O5_40
REMARK                            x       y       z     vdW  Elec       q    Type
REMARK                         _______ _______ _______ _____ _____    ______ ____
ROOT
ATOM      1  C7  UNK     0       0.310  -0.616  -0.433  0.00  0.00    +0.000 C 
ATOM      2  C8  UNK     0       1.186   0.682  -0.172  0.00  0.00    +0.000 C 
ATOM      3  C9  UNK     0       2.705   0.612  -0.648  0.00  0.00    +0.000 C 
ATOM      4  C10 UNK     0      -1.055  -0.445   0.426  0.00  0.00    +0.000 C 
ATOM      5  C11 UNK     0       3.316  -0.671   0.053  0.00  0.00    +0.000 C 
ATOM      6  C12 UNK     0       1.086  -1.921  -0.016  0.00  0.00    +0.000 C 
ATOM      7  C13 UNK     0       2.600  -1.988  -0.351  0.00  0.00    +0.000 C 
ATOM      8  C14 UNK     0       4.890  -0.680   0.226  0.00  0.00    +0.000 C 
ATOM      9  C15 UNK     0      -1.809   0.753  -0.144  0.00  0.00    +0.000 C 
ATOM     10  C16 UNK     0      -3.337   0.742  -0.256  0.00  0.00    +0.000 C 
ATOM     11  C17 UNK     0       3.514   1.884  -0.184  0.00  0.00    +0.000 C 
ATOM     12  C18 UNK     0       0.396   1.981  -0.544  0.00  0.00    +0.000 C 
ATOM     13  C19 UNK     0      -1.980  -1.720   0.439  0.00  0.00    +0.000 C 
ATOM     14  C20 UNK     0      -3.878  -0.583  -0.954  0.00  0.00    +0.000 C 
ATOM     15  C21 UNK     0      -0.023  -0.718  -1.966  0.00  0.00    +0.000 C 
ATOM     16  C22 UNK     0      -2.986  -1.851  -0.707  0.00  0.00    +0.000 C 
ATOM     17  C23 UNK     0       5.287   0.557   1.136  0.00  0.00    +0.000 C 
ATOM     18  C24 UNK     0       4.266   1.744   1.148  0.00  0.00    +0.000 C 
ATOM     19  C25 UNK     0       2.810   0.589  -2.209  0.00  0.00    +0.000 C 
ATOM     20  C26 UNK     0      -1.120   1.857  -0.534  0.00  0.00    +0.000 C 
ATOM     21  C27 UNK     0      -0.783  -0.110   1.936  0.00  0.00    +0.000 C 
ATOM     22  C28 UNK     0      -4.040   1.067   1.104  0.00  0.00    +0.000 C 
ATOM     23  C29 UNK     0      -5.318  -0.902  -0.436  0.00  0.00    +0.000 C 
ATOM     24  C31 UNK     0      -5.591   1.211   0.928  0.00  0.00    +0.000 C 
ATOM     25  C32 UNK     0       5.631  -0.650  -1.137  0.00  0.00    +0.000 C 
ATOM     26  C33 UNK     0      -6.143   0.368  -0.244  0.00  0.00    +0.000 C 
ATOM     27  C35 UNK     0      -3.478   2.357   1.742  0.00  0.00    +0.000 C 
ATOM     28  C36 UNK     0      -6.328   0.856   2.233  0.00  0.00    +0.000 C 
ENDROOT
BRANCH  17  29
ATOM     29  O2  UNK     0       6.595   1.008   0.866  0.00  0.00    +0.000 OA
ATOM     30  H78 UNK     0       6.556   1.638   0.100  0.00  0.00    +0.000 HD
ENDBRANCH  17  29
BRANCH   7  31
ATOM     31  O1  UNK     0       2.828  -2.327  -1.693  0.00  0.00    +0.000 OA
ATOM     32  H74 UNK     0       2.570  -3.279  -1.802  0.00  0.00    +0.000 HD
ENDBRANCH   7  31
BRANCH  18  33
ATOM     33  O3  UNK     0       3.338   1.599   2.195  0.00  0.00    +0.000 OA
ATOM     34  H79 UNK     0       3.807   1.846   3.035  0.00  0.00    +0.000 HD
ENDBRANCH  18  33
BRANCH  14  35
ATOM     35  C34 UNK     0      -3.944  -0.378  -2.469  0.00  0.00    +0.000 C 
ATOM     36  O6  UNK     0      -3.233   0.496  -3.037  0.00  0.00    +0.000 OA
BRANCH  35  37
ATOM     37  O5  UNK     0      -4.721  -1.226  -3.256  0.00  0.00    +0.000 OA
ATOM     38  H84 UNK     0      -4.747  -1.122  -4.264  0.00  0.00    +0.000 HD
ENDBRANCH  35  37
ENDBRANCH  14  35
BRANCH   8  39
ATOM     39  C30 UNK     0       5.343  -1.983   0.958  0.00  0.00    +0.000 C 
BRANCH  39  40
ATOM     40  O4  UNK     0       6.691  -1.902   1.341  0.00  0.00    +0.000 OA
ATOM     41  H83 UNK     0       6.901  -2.757   1.801  0.00  0.00    +0.000 HD
ENDBRANCH  39  40
ENDBRANCH   8  39
TORSDOF 7
