REMARK  Name = C:\Users\Maximilian\Desktop\Conformers\converted_pdb\conformers_pdb\Madecassic Acid_conf_44.pdb
REMARK  13 active torsions:
REMARK  status: ('A' for Active; 'I' for Inactive)
REMARK    1  A    between atoms: C7_1  and  C21_15
REMARK    2  A    between atoms: C9_3  and  C25_19
REMARK    3  A    between atoms: C10_4  and  C27_21
REMARK    4  A    between atoms: C13_7  and  O1_34
REMARK    5  A    between atoms: C14_8  and  C32_25
REMARK    6  A    between atoms: C14_8  and  C30_29
REMARK    7  A    between atoms: C20_14  and  C34_38
REMARK    8  A    between atoms: C23_17  and  O2_32
REMARK    9  A    between atoms: C24_18  and  O3_36
REMARK   10  A    between atoms: C28_22  and  C35_27
REMARK   11  A    between atoms: C31_24  and  C36_28
REMARK   12  A    between atoms: C30_29  and  O4_30
REMARK   13  A    between atoms: C34_38  and  O5_40
REMARK                            x       y       z     vdW  Elec       q    Type
REMARK                         _______ _______ _______ _____ _____    ______ ____
ROOT
ATOM      1  C7  UNK     0      -0.432  -0.595   0.701  0.00  0.00    +0.000 C 
ATOM      2  C8  UNK     0      -1.143   0.408  -0.287  0.00  0.00    +0.000 C 
ATOM      3  C9  UNK     0      -2.688   0.727  -0.038  0.00  0.00    +0.000 C 
ATOM      4  C10 UNK     0       1.029  -0.968   0.108  0.00  0.00    +0.000 C 
ATOM      5  C11 UNK     0      -3.453  -0.656   0.041  0.00  0.00    +0.000 C 
ATOM      6  C12 UNK     0      -1.321  -1.875   0.841  0.00  0.00    +0.000 C 
ATOM      7  C13 UNK     0      -2.832  -1.644   1.078  0.00  0.00    +0.000 C 
ATOM      8  C14 UNK     0      -5.043  -0.587  -0.021  0.00  0.00    +0.000 C 
ATOM      9  C15 UNK     0       1.865   0.306  -0.118  0.00  0.00    +0.000 C 
ATOM     10  C16 UNK     0       3.360   0.370   0.344  0.00  0.00    +0.000 C 
ATOM     11  C17 UNK     0      -3.219   1.500  -1.297  0.00  0.00    +0.000 C 
ATOM     12  C18 UNK     0      -0.266   1.645  -0.607  0.00  0.00    +0.000 C 
ATOM     13  C19 UNK     0       1.813  -1.891   1.091  0.00  0.00    +0.000 C 
ATOM     14  C20 UNK     0       4.127  -1.023   0.303  0.00  0.00    +0.000 C 
ATOM     15  C21 UNK     0      -0.269   0.040   2.119  0.00  0.00    +0.000 C 
ATOM     16  C22 UNK     0       3.207  -2.261   0.589  0.00  0.00    +0.000 C 
ATOM     17  C23 UNK     0      -5.432   0.242  -1.301  0.00  0.00    +0.000 C 
ATOM     18  C24 UNK     0      -4.753   1.627  -1.380  0.00  0.00    +0.000 C 
ATOM     19  C25 UNK     0      -2.916   1.632   1.220  0.00  0.00    +0.000 C 
ATOM     20  C26 UNK     0       1.226   1.442  -0.519  0.00  0.00    +0.000 C 
ATOM     21  C27 UNK     0       0.940  -1.714  -1.270  0.00  0.00    +0.000 C 
ATOM     22  C28 UNK     0       4.193   1.537  -0.346  0.00  0.00    +0.000 C 
ATOM     23  C29 UNK     0       4.747  -1.170  -1.115  0.00  0.00    +0.000 C 
ATOM     24  C31 UNK     0       5.685   1.195  -0.659  0.00  0.00    +0.000 C 
ATOM     25  C32 UNK     0      -5.691   0.039   1.247  0.00  0.00    +0.000 C 
ATOM     26  C33 UNK     0       5.836  -0.136  -1.429  0.00  0.00    +0.000 C 
ATOM     27  C35 UNK     0       4.122   2.830   0.509  0.00  0.00    +0.000 C 
ATOM     28  C36 UNK     0       6.387   2.320  -1.452  0.00  0.00    +0.000 C 
ENDROOT
BRANCH  17  29
ATOM     29  O2  UNK     0      -6.828   0.371  -1.444  0.00  0.00    +0.000 OA
ATOM     30  H78 UNK     0      -7.151   1.031  -0.776  0.00  0.00    +0.000 HD
ENDBRANCH  17  29
BRANCH   7  31
ATOM     31  O1  UNK     0      -3.077  -1.259   2.405  0.00  0.00    +0.000 OA
ATOM     32  H74 UNK     0      -2.944  -2.062   2.974  0.00  0.00    +0.000 HD
ENDBRANCH   7  31
BRANCH  18  33
ATOM     33  O3  UNK     0      -5.097   2.230  -2.604  0.00  0.00    +0.000 OA
ATOM     34  H79 UNK     0      -4.914   3.203  -2.512  0.00  0.00    +0.000 HD
ENDBRANCH  18  33
BRANCH  14  35
ATOM     35  C34 UNK     0       5.245  -1.073   1.356  0.00  0.00    +0.000 C 
ATOM     36  O6  UNK     0       5.281  -0.243   2.306  0.00  0.00    +0.000 OA
BRANCH  35  37
ATOM     37  O5  UNK     0       6.204  -2.087   1.337  0.00  0.00    +0.000 OA
ATOM     38  H84 UNK     0       6.182  -2.840   0.660  0.00  0.00    +0.000 HD
ENDBRANCH  35  37
ENDBRANCH  14  35
BRANCH   8  39
ATOM     39  C30 UNK     0      -5.648  -2.022  -0.221  0.00  0.00    +0.000 C 
BRANCH  39  40
ATOM     40  O4  UNK     0      -5.668  -2.765   0.971  0.00  0.00    +0.000 OA
ATOM     41  H83 UNK     0      -6.558  -2.634   1.388  0.00  0.00    +0.000 HD
ENDBRANCH  39  40
ENDBRANCH   8  39
TORSDOF 7
