REMARK  Name = C:\Users\Maximilian\Desktop\Conformers\converted_pdb\conformers_pdb\Madecassic Acid_conf_36.pdb
REMARK  13 active torsions:
REMARK  status: ('A' for Active; 'I' for Inactive)
REMARK    1  A    between atoms: C7_1  and  C21_15
REMARK    2  A    between atoms: C9_3  and  C25_19
REMARK    3  A    between atoms: C10_4  and  C27_21
REMARK    4  A    between atoms: C13_7  and  O1_34
REMARK    5  A    between atoms: C14_8  and  C32_25
REMARK    6  A    between atoms: C14_8  and  C30_29
REMARK    7  A    between atoms: C20_14  and  C34_38
REMARK    8  A    between atoms: C23_17  and  O2_32
REMARK    9  A    between atoms: C24_18  and  O3_36
REMARK   10  A    between atoms: C28_22  and  C35_27
REMARK   11  A    between atoms: C31_24  and  C36_28
REMARK   12  A    between atoms: C30_29  and  O4_30
REMARK   13  A    between atoms: C34_38  and  O5_40
REMARK                            x       y       z     vdW  Elec       q    Type
REMARK                         _______ _______ _______ _____ _____    ______ ____
ROOT
ATOM      1  C7  UNK     0       0.298  -0.774  -0.617  0.00  0.00    +0.000 C 
ATOM      2  C8  UNK     0       1.166   0.454  -0.137  0.00  0.00    +0.000 C 
ATOM      3  C9  UNK     0       2.758   0.402  -0.322  0.00  0.00    +0.000 C 
ATOM      4  C10 UNK     0      -1.184  -0.660   0.034  0.00  0.00    +0.000 C 
ATOM      5  C11 UNK     0       3.271  -1.021   0.135  0.00  0.00    +0.000 C 
ATOM      6  C12 UNK     0       0.992  -2.106  -0.181  0.00  0.00    +0.000 C 
ATOM      7  C13 UNK     0       2.488  -2.200  -0.522  0.00  0.00    +0.000 C 
ATOM      8  C14 UNK     0       4.852  -1.210   0.209  0.00  0.00    +0.000 C 
ATOM      9  C15 UNK     0      -1.773   0.748  -0.221  0.00  0.00    +0.000 C 
ATOM     10  C16 UNK     0      -3.293   1.008  -0.232  0.00  0.00    +0.000 C 
ATOM     11  C17 UNK     0       3.386   1.513   0.615  0.00  0.00    +0.000 C 
ATOM     12  C18 UNK     0       0.517   1.771  -0.618  0.00  0.00    +0.000 C 
ATOM     13  C19 UNK     0      -2.129  -1.765  -0.563  0.00  0.00    +0.000 C 
ATOM     14  C20 UNK     0      -4.098  -0.155  -0.914  0.00  0.00    +0.000 C 
ATOM     15  C21 UNK     0       0.166  -0.762  -2.178  0.00  0.00    +0.000 C 
ATOM     16  C22 UNK     0      -3.625  -1.516  -0.337  0.00  0.00    +0.000 C 
ATOM     17  C23 UNK     0       5.564   0.128   0.672  0.00  0.00    +0.000 C 
ATOM     18  C24 UNK     0       4.618   1.090   1.443  0.00  0.00    +0.000 C 
ATOM     19  C25 UNK     0       3.215   0.749  -1.777  0.00  0.00    +0.000 C 
ATOM     20  C26 UNK     0      -0.965   1.830  -0.378  0.00  0.00    +0.000 C 
ATOM     21  C27 UNK     0      -1.186  -0.863   1.585  0.00  0.00    +0.000 C 
ATOM     22  C28 UNK     0      -3.918   1.395   1.149  0.00  0.00    +0.000 C 
ATOM     23  C29 UNK     0      -5.634  -0.012  -0.640  0.00  0.00    +0.000 C 
ATOM     24  C31 UNK     0      -5.369   1.955   0.956  0.00  0.00    +0.000 C 
ATOM     25  C32 UNK     0       5.444  -1.694  -1.149  0.00  0.00    +0.000 C 
ATOM     26  C33 UNK     0      -6.050   1.431  -0.334  0.00  0.00    +0.000 C 
ATOM     27  C35 UNK     0      -3.059   2.411   1.929  0.00  0.00    +0.000 C 
ATOM     28  C36 UNK     0      -6.247   1.657   2.183  0.00  0.00    +0.000 C 
ENDROOT
BRANCH  17  29
ATOM     29  O2  UNK     0       6.201   0.768  -0.415  0.00  0.00    +0.000 OA
ATOM     30  H78 UNK     0       6.241   1.752  -0.258  0.00  0.00    +0.000 HD
ENDBRANCH  17  29
BRANCH   7  31
ATOM     31  O1  UNK     0       2.681  -2.271  -1.909  0.00  0.00    +0.000 OA
ATOM     32  H74 UNK     0       2.381  -3.171  -2.201  0.00  0.00    +0.000 HD
ENDBRANCH   7  31
BRANCH  18  33
ATOM     33  O3  UNK     0       4.212   0.501   2.653  0.00  0.00    +0.000 OA
ATOM     34  H79 UNK     0       3.923   1.231   3.260  0.00  0.00    +0.000 HD
ENDBRANCH  18  33
BRANCH  14  35
ATOM     35  C34 UNK     0      -3.888  -0.142  -2.427  0.00  0.00    +0.000 C 
ATOM     36  O6  UNK     0      -4.296  -1.112  -3.125  0.00  0.00    +0.000 OA
BRANCH  35  37
ATOM     37  O5  UNK     0      -3.320   0.956  -3.065  0.00  0.00    +0.000 OA
ATOM     38  H84 UNK     0      -3.230   0.984  -4.076  0.00  0.00    +0.000 HD
ENDBRANCH  35  37
ENDBRANCH  14  35
BRANCH   8  39
ATOM     39  C30 UNK     0       5.221  -2.346   1.225  0.00  0.00    +0.000 C 
BRANCH  39  40
ATOM     40  O4  UNK     0       4.738  -2.088   2.517  0.00  0.00    +0.000 OA
ATOM     41  H83 UNK     0       5.523  -1.930   3.103  0.00  0.00    +0.000 HD
ENDBRANCH  39  40
ENDBRANCH   8  39
TORSDOF 7
