REMARK  Name = C:\Users\Maximilian\Desktop\Conformers\converted_pdb\conformers_pdb\Madecassic Acid_conf_45.pdb
REMARK  13 active torsions:
REMARK  status: ('A' for Active; 'I' for Inactive)
REMARK    1  A    between atoms: C7_1  and  C21_15
REMARK    2  A    between atoms: C9_3  and  C25_19
REMARK    3  A    between atoms: C10_4  and  C27_21
REMARK    4  A    between atoms: C13_7  and  O1_34
REMARK    5  A    between atoms: C14_8  and  C32_25
REMARK    6  A    between atoms: C14_8  and  C30_29
REMARK    7  A    between atoms: C20_14  and  C34_38
REMARK    8  A    between atoms: C23_17  and  O2_32
REMARK    9  A    between atoms: C24_18  and  O3_36
REMARK   10  A    between atoms: C28_22  and  C35_27
REMARK   11  A    between atoms: C31_24  and  C36_28
REMARK   12  A    between atoms: C30_29  and  O4_30
REMARK   13  A    between atoms: C34_38  and  O5_40
REMARK                            x       y       z     vdW  Elec       q    Type
REMARK                         _______ _______ _______ _____ _____    ______ ____
ROOT
ATOM      1  C7  UNK     0      -0.347  -0.383  -0.807  0.00  0.00    +0.000 C 
ATOM      2  C8  UNK     0      -1.016  -0.026   0.573  0.00  0.00    +0.000 C 
ATOM      3  C9  UNK     0      -2.542  -0.442   0.787  0.00  0.00    +0.000 C 
ATOM      4  C10 UNK     0       1.077   0.382  -0.884  0.00  0.00    +0.000 C 
ATOM      5  C11 UNK     0      -3.370   0.061  -0.451  0.00  0.00    +0.000 C 
ATOM      6  C12 UNK     0      -1.292   0.067  -1.971  0.00  0.00    +0.000 C 
ATOM      7  C13 UNK     0      -2.767  -0.369  -1.826  0.00  0.00    +0.000 C 
ATOM      8  C14 UNK     0      -4.963  -0.029  -0.338  0.00  0.00    +0.000 C 
ATOM      9  C15 UNK     0       1.964  -0.106   0.275  0.00  0.00    +0.000 C 
ATOM     10  C16 UNK     0       3.500  -0.160   0.180  0.00  0.00    +0.000 C 
ATOM     11  C17 UNK     0      -3.073   0.349   2.029  0.00  0.00    +0.000 C 
ATOM     12  C18 UNK     0      -0.082  -0.342   1.780  0.00  0.00    +0.000 C 
ATOM     13  C19 UNK     0       1.747   0.150  -2.281  0.00  0.00    +0.000 C 
ATOM     14  C20 UNK     0       4.002  -0.521  -1.267  0.00  0.00    +0.000 C 
ATOM     15  C21 UNK     0      -0.130  -1.933  -0.924  0.00  0.00    +0.000 C 
ATOM     16  C22 UNK     0       3.263   0.361  -2.305  0.00  0.00    +0.000 C 
ATOM     17  C23 UNK     0      -5.451  -0.324   1.131  0.00  0.00    +0.000 C 
ATOM     18  C24 UNK     0      -4.610   0.358   2.243  0.00  0.00    +0.000 C 
ATOM     19  C25 UNK     0      -2.708  -1.973   1.064  0.00  0.00    +0.000 C 
ATOM     20  C26 UNK     0       1.396  -0.419   1.468  0.00  0.00    +0.000 C 
ATOM     21  C27 UNK     0       0.973   1.933  -0.697  0.00  0.00    +0.000 C 
ATOM     22  C28 UNK     0       4.228   1.117   0.724  0.00  0.00    +0.000 C 
ATOM     23  C29 UNK     0       5.539  -0.252  -1.425  0.00  0.00    +0.000 C 
ATOM     24  C31 UNK     0       5.773   0.869   0.843  0.00  0.00    +0.000 C 
ATOM     25  C32 UNK     0      -5.573  -1.110  -1.279  0.00  0.00    +0.000 C 
ATOM     26  C33 UNK     0       6.282  -0.258  -0.090  0.00  0.00    +0.000 C 
ATOM     27  C35 UNK     0       3.680   1.598   2.084  0.00  0.00    +0.000 C 
ATOM     28  C36 UNK     0       6.562   2.167   0.610  0.00  0.00    +0.000 C 
ENDROOT
BRANCH  17  29
ATOM     29  O2  UNK     0      -5.520  -1.710   1.372  0.00  0.00    +0.000 OA
ATOM     30  H78 UNK     0      -6.162  -1.855   2.117  0.00  0.00    +0.000 HD
ENDBRANCH  17  29
BRANCH   7  31
ATOM     31  O1  UNK     0      -2.904  -1.747  -2.050  0.00  0.00    +0.000 OA
ATOM     32  H74 UNK     0      -2.743  -1.904  -3.018  0.00  0.00    +0.000 HD
ENDBRANCH   7  31
BRANCH  18  33
ATOM     33  O3  UNK     0      -5.044   1.687   2.423  0.00  0.00    +0.000 OA
ATOM     34  H79 UNK     0      -5.880   1.652   2.958  0.00  0.00    +0.000 HD
ENDBRANCH  18  33
BRANCH  14  35
ATOM     35  C34 UNK     0       3.740  -1.995  -1.572  0.00  0.00    +0.000 C 
ATOM     36  O6  UNK     0       3.932  -2.439  -2.738  0.00  0.00    +0.000 OA
BRANCH  35  37
ATOM     37  O5  UNK     0       3.292  -2.868  -0.582  0.00  0.00    +0.000 OA
ATOM     38  H84 UNK     0       3.111  -3.843  -0.789  0.00  0.00    +0.000 HD
ENDBRANCH  35  37
ENDBRANCH  14  35
BRANCH   8  39
ATOM     39  C30 UNK     0      -5.557   1.347  -0.792  0.00  0.00    +0.000 C 
BRANCH  39  40
ATOM     40  O4  UNK     0      -6.959   1.320  -0.829  0.00  0.00    +0.000 OA
ATOM     41  H83 UNK     0      -7.268   2.253  -0.679  0.00  0.00    +0.000 HD
ENDBRANCH  39  40
ENDBRANCH   8  39
TORSDOF 7
