REMARK  Name = C:\Users\Maximilian\Desktop\Conformers\converted_pdb\conformers_pdb\Madecassic Acid_conf_17.pdb
REMARK  13 active torsions:
REMARK  status: ('A' for Active; 'I' for Inactive)
REMARK    1  A    between atoms: C7_1  and  C21_15
REMARK    2  A    between atoms: C9_3  and  C25_19
REMARK    3  A    between atoms: C10_4  and  C27_21
REMARK    4  A    between atoms: C13_7  and  O1_34
REMARK    5  A    between atoms: C14_8  and  C32_25
REMARK    6  A    between atoms: C14_8  and  C30_29
REMARK    7  A    between atoms: C20_14  and  C34_38
REMARK    8  A    between atoms: C23_17  and  O2_32
REMARK    9  A    between atoms: C24_18  and  O3_36
REMARK   10  A    between atoms: C28_22  and  C35_27
REMARK   11  A    between atoms: C31_24  and  C36_28
REMARK   12  A    between atoms: C30_29  and  O4_30
REMARK   13  A    between atoms: C34_38  and  O5_40
REMARK                            x       y       z     vdW  Elec       q    Type
REMARK                         _______ _______ _______ _____ _____    ______ ____
ROOT
ATOM      1  C7  UNK     0       0.413  -0.931  -0.734  0.00  0.00    +0.000 C 
ATOM      2  C8  UNK     0       1.043   0.494  -0.441  0.00  0.00    +0.000 C 
ATOM      3  C9  UNK     0       2.627   0.685  -0.561  0.00  0.00    +0.000 C 
ATOM      4  C10 UNK     0      -1.043  -0.958  -0.031  0.00  0.00    +0.000 C 
ATOM      5  C11 UNK     0       3.319  -0.548   0.140  0.00  0.00    +0.000 C 
ATOM      6  C12 UNK     0       1.320  -2.090  -0.187  0.00  0.00    +0.000 C 
ATOM      7  C13 UNK     0       2.828  -1.914  -0.430  0.00  0.00    +0.000 C 
ATOM      8  C14 UNK     0       4.879  -0.436   0.458  0.00  0.00    +0.000 C 
ATOM      9  C15 UNK     0      -1.889   0.256  -0.473  0.00  0.00    +0.000 C 
ATOM     10  C16 UNK     0      -3.430   0.129  -0.590  0.00  0.00    +0.000 C 
ATOM     11  C17 UNK     0       3.017   1.967   0.249  0.00  0.00    +0.000 C 
ATOM     12  C18 UNK     0       0.199   1.577  -1.139  0.00  0.00    +0.000 C 
ATOM     13  C19 UNK     0      -1.818  -2.241  -0.469  0.00  0.00    +0.000 C 
ATOM     14  C20 UNK     0      -4.087  -1.095   0.178  0.00  0.00    +0.000 C 
ATOM     15  C21 UNK     0       0.245  -1.159  -2.278  0.00  0.00    +0.000 C 
ATOM     16  C22 UNK     0      -3.216  -2.399   0.134  0.00  0.00    +0.000 C 
ATOM     17  C23 UNK     0       5.159   0.932   1.179  0.00  0.00    +0.000 C 
ATOM     18  C24 UNK     0       4.530   2.149   0.464  0.00  0.00    +0.000 C 
ATOM     19  C25 UNK     0       3.079   0.920  -2.038  0.00  0.00    +0.000 C 
ATOM     20  C26 UNK     0      -1.285   1.377  -0.964  0.00  0.00    +0.000 C 
ATOM     21  C27 UNK     0      -0.934  -0.917   1.538  0.00  0.00    +0.000 C 
ATOM     22  C28 UNK     0      -4.200   1.499  -0.344  0.00  0.00    +0.000 C 
ATOM     23  C29 UNK     0      -4.362  -0.750   1.688  0.00  0.00    +0.000 C 
ATOM     24  C31 UNK     0      -5.291   1.437   0.760  0.00  0.00    +0.000 C 
ATOM     25  C32 UNK     0       5.784  -0.583  -0.800  0.00  0.00    +0.000 C 
ATOM     26  C33 UNK     0      -4.726   0.710   1.983  0.00  0.00    +0.000 C 
ATOM     27  C35 UNK     0      -4.785   2.034  -1.667  0.00  0.00    +0.000 C 
ATOM     28  C36 UNK     0      -5.773   2.839   1.181  0.00  0.00    +0.000 C 
ENDROOT
BRANCH  17  29
ATOM     29  O2  UNK     0       6.546   1.148   1.297  0.00  0.00    +0.000 OA
ATOM     30  H78 UNK     0       6.685   1.729   2.090  0.00  0.00    +0.000 HD
ENDBRANCH  17  29
BRANCH   7  31
ATOM     31  O1  UNK     0       3.134  -2.066  -1.790  0.00  0.00    +0.000 OA
ATOM     32  H74 UNK     0       3.033  -3.029  -2.008  0.00  0.00    +0.000 HD
ENDBRANCH   7  31
BRANCH  18  33
ATOM     33  O3  UNK     0       4.763   3.328   1.197  0.00  0.00    +0.000 OA
ATOM     34  H79 UNK     0       4.380   3.206   2.104  0.00  0.00    +0.000 HD
ENDBRANCH  18  33
BRANCH  14  35
ATOM     35  C34 UNK     0      -5.407  -1.440  -0.526  0.00  0.00    +0.000 C 
ATOM     36  O6  UNK     0      -6.461  -1.674   0.127  0.00  0.00    +0.000 OA
BRANCH  35  37
ATOM     37  O5  UNK     0      -5.436  -1.583  -1.912  0.00  0.00    +0.000 OA
ATOM     38  H84 UNK     0      -6.292  -1.832  -2.391  0.00  0.00    +0.000 HD
ENDBRANCH  35  37
ENDBRANCH  14  35
BRANCH   8  39
ATOM     39  C30 UNK     0       5.275  -1.587   1.450  0.00  0.00    +0.000 C 
BRANCH  39  40
ATOM     40  O4  UNK     0       6.555  -1.390   1.994  0.00  0.00    +0.000 OA
ATOM     41  H83 UNK     0       6.639  -2.026   2.751  0.00  0.00    +0.000 HD
ENDBRANCH  39  40
ENDBRANCH   8  39
TORSDOF 7
