REMARK  Name = C:\Users\Maximilian\Desktop\Conformers\converted_pdb\conformers_pdb\Madecassic Acid_conf_2.pdb
REMARK  13 active torsions:
REMARK  status: ('A' for Active; 'I' for Inactive)
REMARK    1  A    between atoms: C7_1  and  C21_15
REMARK    2  A    between atoms: C9_3  and  C25_19
REMARK    3  A    between atoms: C10_4  and  C27_21
REMARK    4  A    between atoms: C13_7  and  O1_34
REMARK    5  A    between atoms: C14_8  and  C32_25
REMARK    6  A    between atoms: C14_8  and  C30_29
REMARK    7  A    between atoms: C20_14  and  C34_38
REMARK    8  A    between atoms: C23_17  and  O2_32
REMARK    9  A    between atoms: C24_18  and  O3_36
REMARK   10  A    between atoms: C28_22  and  C35_27
REMARK   11  A    between atoms: C31_24  and  C36_28
REMARK   12  A    between atoms: C30_29  and  O4_30
REMARK   13  A    between atoms: C34_38  and  O5_40
REMARK                            x       y       z     vdW  Elec       q    Type
REMARK                         _______ _______ _______ _____ _____    ______ ____
ROOT
ATOM      1  C7  UNK     0       0.411  -1.114  -0.337  0.00  0.00    +0.000 C 
ATOM      2  C8  UNK     0       0.981   0.298  -0.762  0.00  0.00    +0.000 C 
ATOM      3  C9  UNK     0       2.553   0.407  -0.942  0.00  0.00    +0.000 C 
ATOM      4  C10 UNK     0      -1.010  -0.870   0.393  0.00  0.00    +0.000 C 
ATOM      5  C11 UNK     0       3.206   0.105   0.465  0.00  0.00    +0.000 C 
ATOM      6  C12 UNK     0       1.460  -1.876   0.546  0.00  0.00    +0.000 C 
ATOM      7  C13 UNK     0       2.478  -1.013   1.319  0.00  0.00    +0.000 C 
ATOM      8  C14 UNK     0       4.798   0.216   0.526  0.00  0.00    +0.000 C 
ATOM      9  C15 UNK     0      -1.898   0.050  -0.494  0.00  0.00    +0.000 C 
ATOM     10  C16 UNK     0      -3.429   0.107  -0.311  0.00  0.00    +0.000 C 
ATOM     11  C17 UNK     0       2.943   1.878  -1.356  0.00  0.00    +0.000 C 
ATOM     12  C18 UNK     0       0.091   0.888  -1.871  0.00  0.00    +0.000 C 
ATOM     13  C19 UNK     0      -1.765  -2.225   0.643  0.00  0.00    +0.000 C 
ATOM     14  C20 UNK     0      -4.062  -1.308  -0.050  0.00  0.00    +0.000 C 
ATOM     15  C21 UNK     0       0.161  -2.023  -1.601  0.00  0.00    +0.000 C 
ATOM     16  C22 UNK     0      -3.240  -2.062   1.030  0.00  0.00    +0.000 C 
ATOM     17  C23 UNK     0       5.320   1.370  -0.434  0.00  0.00    +0.000 C 
ATOM     18  C24 UNK     0       4.253   2.447  -0.751  0.00  0.00    +0.000 C 
ATOM     19  C25 UNK     0       3.039  -0.547  -2.064  0.00  0.00    +0.000 C 
ATOM     20  C26 UNK     0      -1.366   0.848  -1.469  0.00  0.00    +0.000 C 
ATOM     21  C27 UNK     0      -0.827  -0.200   1.792  0.00  0.00    +0.000 C 
ATOM     22  C28 UNK     0      -3.927   1.160   0.729  0.00  0.00    +0.000 C 
ATOM     23  C29 UNK     0      -5.535  -1.181   0.469  0.00  0.00    +0.000 C 
ATOM     24  C31 UNK     0      -5.477   1.363   0.612  0.00  0.00    +0.000 C 
ATOM     25  C32 UNK     0       5.510  -1.125   0.169  0.00  0.00    +0.000 C 
ATOM     26  C33 UNK     0      -6.204   0.123   0.029  0.00  0.00    +0.000 C 
ATOM     27  C35 UNK     0      -3.205   2.514   0.585  0.00  0.00    +0.000 C 
ATOM     28  C36 UNK     0      -6.086   1.753   1.970  0.00  0.00    +0.000 C 
ENDROOT
BRANCH  17  29
ATOM     29  O2  UNK     0       5.850   0.863  -1.634  0.00  0.00    +0.000 OA
ATOM     30  H78 UNK     0       6.402   1.579  -2.045  0.00  0.00    +0.000 HD
ENDBRANCH  17  29
BRANCH   7  31
ATOM     31  O1  UNK     0       3.387  -1.875   1.950  0.00  0.00    +0.000 OA
ATOM     32  H74 UNK     0       2.920  -2.288   2.724  0.00  0.00    +0.000 HD
ENDBRANCH   7  31
BRANCH  18  33
ATOM     33  O3  UNK     0       3.954   3.188   0.406  0.00  0.00    +0.000 OA
ATOM     34  H79 UNK     0       4.746   3.752   0.604  0.00  0.00    +0.000 HD
ENDBRANCH  18  33
BRANCH  14  35
ATOM     35  C34 UNK     0      -4.080  -2.135  -1.337  0.00  0.00    +0.000 C 
ATOM     36  O6  UNK     0      -4.359  -3.364  -1.291  0.00  0.00    +0.000 OA
BRANCH  35  37
ATOM     37  O5  UNK     0      -3.824  -1.549  -2.576  0.00  0.00    +0.000 OA
ATOM     38  H84 UNK     0      -3.829  -2.102  -3.423  0.00  0.00    +0.000 HD
ENDBRANCH  35  37
ENDBRANCH  14  35
BRANCH   8  39
ATOM     39  C30 UNK     0       5.218   0.595   1.987  0.00  0.00    +0.000 C 
BRANCH  39  40
ATOM     40  O4  UNK     0       6.616   0.609   2.124  0.00  0.00    +0.000 OA
ATOM     41  H83 UNK     0       6.802   0.892   3.057  0.00  0.00    +0.000 HD
ENDBRANCH  39  40
ENDBRANCH   8  39
TORSDOF 7
