REMARK  Name = C:\Users\Maximilian\Desktop\Conformers\converted_pdb\conformers_pdb\Madecassic Acid_conf_38.pdb
REMARK  13 active torsions:
REMARK  status: ('A' for Active; 'I' for Inactive)
REMARK    1  A    between atoms: C7_1  and  C21_15
REMARK    2  A    between atoms: C9_3  and  C25_19
REMARK    3  A    between atoms: C10_4  and  C27_21
REMARK    4  A    between atoms: C13_7  and  O1_34
REMARK    5  A    between atoms: C14_8  and  C32_25
REMARK    6  A    between atoms: C14_8  and  C30_29
REMARK    7  A    between atoms: C20_14  and  C34_38
REMARK    8  A    between atoms: C23_17  and  O2_32
REMARK    9  A    between atoms: C24_18  and  O3_36
REMARK   10  A    between atoms: C28_22  and  C35_27
REMARK   11  A    between atoms: C31_24  and  C36_28
REMARK   12  A    between atoms: C30_29  and  O4_30
REMARK   13  A    between atoms: C34_38  and  O5_40
REMARK                            x       y       z     vdW  Elec       q    Type
REMARK                         _______ _______ _______ _____ _____    ______ ____
ROOT
ATOM      1  C7  UNK     0      -0.598   0.090   1.228  0.00  0.00    +0.000 C 
ATOM      2  C8  UNK     0      -1.014   0.945  -0.029  0.00  0.00    +0.000 C 
ATOM      3  C9  UNK     0      -2.565   1.050  -0.317  0.00  0.00    +0.000 C 
ATOM      4  C10 UNK     0       0.880  -0.478   0.959  0.00  0.00    +0.000 C 
ATOM      5  C11 UNK     0      -3.030  -0.424  -0.669  0.00  0.00    +0.000 C 
ATOM      6  C12 UNK     0      -1.649  -1.040   1.514  0.00  0.00    +0.000 C 
ATOM      7  C13 UNK     0      -2.549  -1.531   0.351  0.00  0.00    +0.000 C 
ATOM      8  C14 UNK     0      -4.453  -0.610  -1.364  0.00  0.00    +0.000 C 
ATOM      9  C15 UNK     0       1.807   0.689   0.485  0.00  0.00    +0.000 C 
ATOM     10  C16 UNK     0       3.342   0.543   0.526  0.00  0.00    +0.000 C 
ATOM     11  C17 UNK     0      -2.792   1.948  -1.571  0.00  0.00    +0.000 C 
ATOM     12  C18 UNK     0      -0.166   2.226  -0.093  0.00  0.00    +0.000 C 
ATOM     13  C19 UNK     0       1.466  -1.151   2.265  0.00  0.00    +0.000 C 
ATOM     14  C20 UNK     0       3.862  -0.358   1.722  0.00  0.00    +0.000 C 
ATOM     15  C21 UNK     0      -0.556   0.995   2.519  0.00  0.00    +0.000 C 
ATOM     16  C22 UNK     0       2.754  -0.512   2.799  0.00  0.00    +0.000 C 
ATOM     17  C23 UNK     0      -4.572   0.430  -2.543  0.00  0.00    +0.000 C 
ATOM     18  C24 UNK     0      -4.214   1.875  -2.146  0.00  0.00    +0.000 C 
ATOM     19  C25 UNK     0      -3.321   1.710   0.877  0.00  0.00    +0.000 C 
ATOM     20  C26 UNK     0       1.304   1.893   0.066  0.00  0.00    +0.000 C 
ATOM     21  C27 UNK     0       0.877  -1.582  -0.141  0.00  0.00    +0.000 C 
ATOM     22  C28 UNK     0       3.933   0.172  -0.886  0.00  0.00    +0.000 C 
ATOM     23  C29 UNK     0       4.315  -1.778   1.262  0.00  0.00    +0.000 C 
ATOM     24  C31 UNK     0       5.327  -0.497  -0.751  0.00  0.00    +0.000 C 
ATOM     25  C32 UNK     0      -5.637  -0.472  -0.363  0.00  0.00    +0.000 C 
ATOM     26  C33 UNK     0       5.236  -1.818   0.030  0.00  0.00    +0.000 C 
ATOM     27  C35 UNK     0       4.026   1.415  -1.786  0.00  0.00    +0.000 C 
ATOM     28  C36 UNK     0       6.000  -0.783  -2.106  0.00  0.00    +0.000 C 
ENDROOT
BRANCH  17  29
ATOM     29  O2  UNK     0      -5.830   0.394  -3.175  0.00  0.00    +0.000 OA
ATOM     30  H78 UNK     0      -6.490   0.830  -2.574  0.00  0.00    +0.000 HD
ENDBRANCH  17  29
BRANCH   7  31
ATOM     31  O1  UNK     0      -3.635  -2.204   0.941  0.00  0.00    +0.000 OA
ATOM     32  H74 UNK     0      -3.431  -3.187   0.897  0.00  0.00    +0.000 HD
ENDBRANCH   7  31
BRANCH  18  33
ATOM     33  O3  UNK     0      -4.284   2.681  -3.292  0.00  0.00    +0.000 OA
ATOM     34  H79 UNK     0      -4.290   3.624  -2.976  0.00  0.00    +0.000 HD
ENDBRANCH  18  33
BRANCH  14  35
ATOM     35  C34 UNK     0       5.035   0.348   2.411  0.00  0.00    +0.000 C 
ATOM     36  O6  UNK     0       6.198  -0.119   2.353  0.00  0.00    +0.000 OA
BRANCH  35  37
ATOM     37  O5  UNK     0       4.822   1.539   3.099  0.00  0.00    +0.000 OA
ATOM     38  H84 UNK     0       5.602   2.049   3.510  0.00  0.00    +0.000 HD
ENDBRANCH  35  37
ENDBRANCH  14  35
BRANCH   8  39
ATOM     39  C30 UNK     0      -4.525  -2.035  -2.007  0.00  0.00    +0.000 C 
BRANCH  39  40
ATOM     40  O4  UNK     0      -5.758  -2.250  -2.645  0.00  0.00    +0.000 OA
ATOM     41  H83 UNK     0      -6.341  -2.718  -1.991  0.00  0.00    +0.000 HD
ENDBRANCH  39  40
ENDBRANCH   8  39
TORSDOF 7
