REMARK  Name = C:\Users\Maximilian\Desktop\Conformers\converted_pdb\conformers_pdb\Madecassic Acid_conf_14.pdb
REMARK  13 active torsions:
REMARK  status: ('A' for Active; 'I' for Inactive)
REMARK    1  A    between atoms: C7_1  and  C21_15
REMARK    2  A    between atoms: C9_3  and  C25_19
REMARK    3  A    between atoms: C10_4  and  C27_21
REMARK    4  A    between atoms: C13_7  and  O1_34
REMARK    5  A    between atoms: C14_8  and  C32_25
REMARK    6  A    between atoms: C14_8  and  C30_29
REMARK    7  A    between atoms: C20_14  and  C34_38
REMARK    8  A    between atoms: C23_17  and  O2_32
REMARK    9  A    between atoms: C24_18  and  O3_36
REMARK   10  A    between atoms: C28_22  and  C35_27
REMARK   11  A    between atoms: C31_24  and  C36_28
REMARK   12  A    between atoms: C30_29  and  O4_30
REMARK   13  A    between atoms: C34_38  and  O5_40
REMARK                            x       y       z     vdW  Elec       q    Type
REMARK                         _______ _______ _______ _____ _____    ______ ____
ROOT
ATOM      1  C7  UNK     0       0.363  -0.095   0.819  0.00  0.00    +0.000 C 
ATOM      2  C8  UNK     0       1.049  -0.013  -0.597  0.00  0.00    +0.000 C 
ATOM      3  C9  UNK     0       2.565  -0.477  -0.715  0.00  0.00    +0.000 C 
ATOM      4  C10 UNK     0      -1.089   0.613   0.707  0.00  0.00    +0.000 C 
ATOM      5  C11 UNK     0       3.393   0.311   0.385  0.00  0.00    +0.000 C 
ATOM      6  C12 UNK     0       1.289   0.634   1.846  0.00  0.00    +0.000 C 
ATOM      7  C13 UNK     0       2.778   0.206   1.821  0.00  0.00    +0.000 C 
ATOM      8  C14 UNK     0       4.982   0.224   0.275  0.00  0.00    +0.000 C 
ATOM      9  C15 UNK     0      -1.959  -0.181  -0.282  0.00  0.00    +0.000 C 
ATOM     10  C16 UNK     0      -3.388  -0.647   0.147  0.00  0.00    +0.000 C 
ATOM     11  C17 UNK     0       3.095  -0.018  -2.116  0.00  0.00    +0.000 C 
ATOM     12  C18 UNK     0       0.114  -0.475  -1.753  0.00  0.00    +0.000 C 
ATOM     13  C19 UNK     0      -1.787   0.653   2.100  0.00  0.00    +0.000 C 
ATOM     14  C20 UNK     0      -4.159   0.398   1.071  0.00  0.00    +0.000 C 
ATOM     15  C21 UNK     0       0.174  -1.571   1.311  0.00  0.00    +0.000 C 
ATOM     16  C22 UNK     0      -3.220   1.182   2.052  0.00  0.00    +0.000 C 
ATOM     17  C23 UNK     0       5.390   0.629  -1.188  0.00  0.00    +0.000 C 
ATOM     18  C24 UNK     0       4.623  -0.142  -2.286  0.00  0.00    +0.000 C 
ATOM     19  C25 UNK     0       2.698  -2.031  -0.619  0.00  0.00    +0.000 C 
ATOM     20  C26 UNK     0      -1.338  -0.690  -1.385  0.00  0.00    +0.000 C 
ATOM     21  C27 UNK     0      -1.020   2.079   0.162  0.00  0.00    +0.000 C 
ATOM     22  C28 UNK     0      -4.326  -1.204  -1.006  0.00  0.00    +0.000 C 
ATOM     23  C29 UNK     0      -4.906   1.461   0.201  0.00  0.00    +0.000 C 
ATOM     24  C31 UNK     0      -5.032  -0.087  -1.820  0.00  0.00    +0.000 C 
ATOM     25  C32 UNK     0       5.545  -1.174   0.641  0.00  0.00    +0.000 C 
ATOM     26  C33 UNK     0      -5.795   0.882  -0.903  0.00  0.00    +0.000 C 
ATOM     27  C35 UNK     0      -5.353  -2.236  -0.496  0.00  0.00    +0.000 C 
ATOM     28  C36 UNK     0      -4.067   0.670  -2.751  0.00  0.00    +0.000 C 
ENDROOT
BRANCH  17  29
ATOM     29  O2  UNK     0       6.778   0.524  -1.402  0.00  0.00    +0.000 OA
ATOM     30  H78 UNK     0       7.004  -0.437  -1.512  0.00  0.00    +0.000 HD
ENDBRANCH  17  29
BRANCH   7  31
ATOM     31  O1  UNK     0       2.944  -1.069   2.382  0.00  0.00    +0.000 OA
ATOM     32  H74 UNK     0       2.849  -0.968   3.369  0.00  0.00    +0.000 HD
ENDBRANCH   7  31
BRANCH  18  33
ATOM     33  O3  UNK     0       4.998   0.317  -3.561  0.00  0.00    +0.000 OA
ATOM     34  H79 UNK     0       4.780   1.282  -3.612  0.00  0.00    +0.000 HD
ENDBRANCH  18  33
BRANCH  14  35
ATOM     35  C34 UNK     0      -5.149  -0.351   1.964  0.00  0.00    +0.000 C 
ATOM     36  O6  UNK     0      -4.743  -1.294   2.697  0.00  0.00    +0.000 OA
BRANCH  35  37
ATOM     37  O5  UNK     0      -6.479   0.051   2.060  0.00  0.00    +0.000 OA
ATOM     38  H84 UNK     0      -7.124  -0.420   2.683  0.00  0.00    +0.000 HD
ENDBRANCH  35  37
ENDBRANCH  14  35
BRANCH   8  39
ATOM     39  C30 UNK     0       5.614   1.257   1.269  0.00  0.00    +0.000 C 
BRANCH  39  40
ATOM     40  O4  UNK     0       7.002   1.377   1.106  0.00  0.00    +0.000 OA
ATOM     41  H83 UNK     0       7.162   2.186   0.549  0.00  0.00    +0.000 HD
ENDBRANCH  39  40
ENDBRANCH   8  39
TORSDOF 7
