REMARK  Name = C:\Users\Maximilian\Desktop\Conformers\converted_pdb\conformers_pdb\Madecassic Acid_conf_8.pdb
REMARK  13 active torsions:
REMARK  status: ('A' for Active; 'I' for Inactive)
REMARK    1  A    between atoms: C7_1  and  C21_15
REMARK    2  A    between atoms: C9_3  and  C25_19
REMARK    3  A    between atoms: C10_4  and  C27_21
REMARK    4  A    between atoms: C13_7  and  O1_34
REMARK    5  A    between atoms: C14_8  and  C32_25
REMARK    6  A    between atoms: C14_8  and  C30_29
REMARK    7  A    between atoms: C20_14  and  C34_38
REMARK    8  A    between atoms: C23_17  and  O2_32
REMARK    9  A    between atoms: C24_18  and  O3_36
REMARK   10  A    between atoms: C28_22  and  C35_27
REMARK   11  A    between atoms: C31_24  and  C36_28
REMARK   12  A    between atoms: C30_29  and  O4_30
REMARK   13  A    between atoms: C34_38  and  O5_40
REMARK                            x       y       z     vdW  Elec       q    Type
REMARK                         _______ _______ _______ _____ _____    ______ ____
ROOT
ATOM      1  C7  UNK     0      -0.294   0.534  -0.449  0.00  0.00    +0.000 C 
ATOM      2  C8  UNK     0      -1.073  -0.594   0.323  0.00  0.00    +0.000 C 
ATOM      3  C9  UNK     0      -2.630  -0.733   0.024  0.00  0.00    +0.000 C 
ATOM      4  C10 UNK     0       1.175   0.657   0.214  0.00  0.00    +0.000 C 
ATOM      5  C11 UNK     0      -3.285   0.691   0.240  0.00  0.00    +0.000 C 
ATOM      6  C12 UNK     0      -1.075   1.887  -0.341  0.00  0.00    +0.000 C 
ATOM      7  C13 UNK     0      -2.598   1.818  -0.597  0.00  0.00    +0.000 C 
ATOM      8  C14 UNK     0      -4.876   0.739   0.318  0.00  0.00    +0.000 C 
ATOM      9  C15 UNK     0       1.901  -0.690   0.022  0.00  0.00    +0.000 C 
ATOM     10  C16 UNK     0       3.425  -0.784  -0.146  0.00  0.00    +0.000 C 
ATOM     11  C17 UNK     0      -3.226  -1.700   1.099  0.00  0.00    +0.000 C 
ATOM     12  C18 UNK     0      -0.292  -1.946   0.345  0.00  0.00    +0.000 C 
ATOM     13  C19 UNK     0       1.961   1.876  -0.401  0.00  0.00    +0.000 C 
ATOM     14  C20 UNK     0       3.943   0.387  -1.039  0.00  0.00    +0.000 C 
ATOM     15  C21 UNK     0      -0.168   0.165  -1.970  0.00  0.00    +0.000 C 
ATOM     16  C22 UNK     0       3.489   1.733  -0.417  0.00  0.00    +0.000 C 
ATOM     17  C23 UNK     0      -5.350  -0.309   1.386  0.00  0.00    +0.000 C 
ATOM     18  C24 UNK     0      -4.766  -1.718   1.153  0.00  0.00    +0.000 C 
ATOM     19  C25 UNK     0      -2.901  -1.342  -1.394  0.00  0.00    +0.000 C 
ATOM     20  C26 UNK     0       1.198  -1.848   0.102  0.00  0.00    +0.000 C 
ATOM     21  C27 UNK     0       1.149   0.892   1.762  0.00  0.00    +0.000 C 
ATOM     22  C28 UNK     0       4.184  -0.899   1.226  0.00  0.00    +0.000 C 
ATOM     23  C29 UNK     0       5.486   0.333  -1.161  0.00  0.00    +0.000 C 
ATOM     24  C31 UNK     0       5.725  -0.964   0.997  0.00  0.00    +0.000 C 
ATOM     25  C32 UNK     0      -5.569   0.473  -1.046  0.00  0.00    +0.000 C 
ATOM     26  C33 UNK     0       6.199   0.253   0.187  0.00  0.00    +0.000 C 
ATOM     27  C35 UNK     0       3.699  -2.120   2.037  0.00  0.00    +0.000 C 
ATOM     28  C36 UNK     0       6.523  -1.024   2.314  0.00  0.00    +0.000 C 
ENDROOT
BRANCH  17  29
ATOM     29  O2  UNK     0      -6.755  -0.403   1.399  0.00  0.00    +0.000 OA
ATOM     30  H78 UNK     0      -7.024  -0.678   2.315  0.00  0.00    +0.000 HD
ENDBRANCH  17  29
BRANCH   7  31
ATOM     31  O1  UNK     0      -2.879   1.714  -1.966  0.00  0.00    +0.000 OA
ATOM     32  H74 UNK     0      -2.667   2.592  -2.379  0.00  0.00    +0.000 HD
ENDBRANCH   7  31
BRANCH  18  33
ATOM     33  O3  UNK     0      -5.195  -2.602   2.160  0.00  0.00    +0.000 OA
ATOM     34  H79 UNK     0      -4.876  -2.251   3.032  0.00  0.00    +0.000 HD
ENDBRANCH  18  33
BRANCH  14  35
ATOM     35  C34 UNK     0       3.406   0.275  -2.464  0.00  0.00    +0.000 C 
ATOM     36  O6  UNK     0       3.006  -0.830  -2.922  0.00  0.00    +0.000 OA
BRANCH  35  37
ATOM     37  O5  UNK     0       3.436   1.384  -3.306  0.00  0.00    +0.000 OA
ATOM     38  H84 UNK     0       3.102   1.322  -4.260  0.00  0.00    +0.000 HD
ENDBRANCH  35  37
ENDBRANCH  14  35
BRANCH   8  39
ATOM     39  C30 UNK     0      -5.322   2.164   0.798  0.00  0.00    +0.000 C 
BRANCH  39  40
ATOM     40  O4  UNK     0      -6.678   2.210   1.161  0.00  0.00    +0.000 OA
ATOM     41  H83 UNK     0      -7.190   2.498   0.360  0.00  0.00    +0.000 HD
ENDBRANCH  39  40
ENDBRANCH   8  39
TORSDOF 7
