REMARK  Name = C:\Users\Maximilian\Desktop\Conformers\converted_pdb\conformers_pdb\Madecassic Acid_conf_13.pdb
REMARK  13 active torsions:
REMARK  status: ('A' for Active; 'I' for Inactive)
REMARK    1  A    between atoms: C7_1  and  C21_15
REMARK    2  A    between atoms: C9_3  and  C25_19
REMARK    3  A    between atoms: C10_4  and  C27_21
REMARK    4  A    between atoms: C13_7  and  O1_34
REMARK    5  A    between atoms: C14_8  and  C32_25
REMARK    6  A    between atoms: C14_8  and  C30_29
REMARK    7  A    between atoms: C20_14  and  C34_38
REMARK    8  A    between atoms: C23_17  and  O2_32
REMARK    9  A    between atoms: C24_18  and  O3_36
REMARK   10  A    between atoms: C28_22  and  C35_27
REMARK   11  A    between atoms: C31_24  and  C36_28
REMARK   12  A    between atoms: C30_29  and  O4_30
REMARK   13  A    between atoms: C34_38  and  O5_40
REMARK                            x       y       z     vdW  Elec       q    Type
REMARK                         _______ _______ _______ _____ _____    ______ ____
ROOT
ATOM      1  C7  UNK     0       0.389   0.694   0.486  0.00  0.00    +0.000 C 
ATOM      2  C8  UNK     0       1.153  -0.673   0.254  0.00  0.00    +0.000 C 
ATOM      3  C9  UNK     0       2.687  -0.701   0.670  0.00  0.00    +0.000 C 
ATOM      4  C10 UNK     0      -1.047   0.578  -0.245  0.00  0.00    +0.000 C 
ATOM      5  C11 UNK     0       3.369   0.515  -0.088  0.00  0.00    +0.000 C 
ATOM      6  C12 UNK     0       1.214   1.899  -0.086  0.00  0.00    +0.000 C 
ATOM      7  C13 UNK     0       2.734   1.904   0.216  0.00  0.00    +0.000 C 
ATOM      8  C14 UNK     0       4.942   0.417  -0.214  0.00  0.00    +0.000 C 
ATOM      9  C15 UNK     0      -1.839  -0.547   0.441  0.00  0.00    +0.000 C 
ATOM     10  C16 UNK     0      -3.371  -0.525   0.563  0.00  0.00    +0.000 C 
ATOM     11  C17 UNK     0       3.369  -2.050   0.188  0.00  0.00    +0.000 C 
ATOM     12  C18 UNK     0       0.305  -1.896   0.731  0.00  0.00    +0.000 C 
ATOM     13  C19 UNK     0      -1.795   1.958  -0.216  0.00  0.00    +0.000 C 
ATOM     14  C20 UNK     0      -3.936   0.930   0.755  0.00  0.00    +0.000 C 
ATOM     15  C21 UNK     0       0.182   0.951   2.025  0.00  0.00    +0.000 C 
ATOM     16  C22 UNK     0      -3.318   1.865  -0.316  0.00  0.00    +0.000 C 
ATOM     17  C23 UNK     0       5.316  -0.899  -1.025  0.00  0.00    +0.000 C 
ATOM     18  C24 UNK     0       4.182  -1.962  -1.112  0.00  0.00    +0.000 C 
ATOM     19  C25 UNK     0       2.849  -0.636   2.235  0.00  0.00    +0.000 C 
ATOM     20  C26 UNK     0      -1.182  -1.651   0.880  0.00  0.00    +0.000 C 
ATOM     21  C27 UNK     0      -0.957   0.159  -1.750  0.00  0.00    +0.000 C 
ATOM     22  C28 UNK     0      -4.119  -1.266  -0.598  0.00  0.00    +0.000 C 
ATOM     23  C29 UNK     0      -5.493   0.970   0.582  0.00  0.00    +0.000 C 
ATOM     24  C31 UNK     0      -5.644  -1.423  -0.269  0.00  0.00    +0.000 C 
ATOM     25  C32 UNK     0       5.621   0.423   1.181  0.00  0.00    +0.000 C 
ATOM     26  C33 UNK     0      -6.151  -0.397   0.774  0.00  0.00    +0.000 C 
ATOM     27  C35 UNK     0      -3.519  -2.647  -0.926  0.00  0.00    +0.000 C 
ATOM     28  C36 UNK     0      -6.494  -1.359  -1.550  0.00  0.00    +0.000 C 
ENDROOT
BRANCH  17  29
ATOM     29  O2  UNK     0       6.469  -1.515  -0.503  0.00  0.00    +0.000 OA
ATOM     30  H78 UNK     0       7.249  -0.982  -0.810  0.00  0.00    +0.000 HD
ENDBRANCH  17  29
BRANCH   7  31
ATOM     31  O1  UNK     0       3.011   2.357   1.513  0.00  0.00    +0.000 OA
ATOM     32  H74 UNK     0       2.798   3.326   1.537  0.00  0.00    +0.000 HD
ENDBRANCH   7  31
BRANCH  18  33
ATOM     33  O3  UNK     0       3.322  -1.709  -2.195  0.00  0.00    +0.000 OA
ATOM     34  H79 UNK     0       3.806  -1.977  -3.020  0.00  0.00    +0.000 HD
ENDBRANCH  18  33
BRANCH  14  35
ATOM     35  C34 UNK     0      -3.603   1.463   2.148  0.00  0.00    +0.000 C 
ATOM     36  O6  UNK     0      -3.258   0.687   3.080  0.00  0.00    +0.000 OA
BRANCH  35  37
ATOM     37  O5  UNK     0      -3.735   2.824   2.415  0.00  0.00    +0.000 OA
ATOM     38  H84 UNK     0      -3.533   3.195   3.335  0.00  0.00    +0.000 HD
ENDBRANCH  35  37
ENDBRANCH  14  35
BRANCH   8  39
ATOM     39  C30 UNK     0       5.526   1.638  -0.989  0.00  0.00    +0.000 C 
BRANCH  39  40
ATOM     40  O4  UNK     0       4.890   1.805  -2.229  0.00  0.00    +0.000 OA
ATOM     41  H83 UNK     0       5.304   2.604  -2.647  0.00  0.00    +0.000 HD
ENDBRANCH  39  40
ENDBRANCH   8  39
TORSDOF 7
