REMARK  Name = C:\Users\Maximilian\Desktop\Conformers\converted_pdb\conformers_pdb\Madecassic Acid_conf_12.pdb
REMARK  13 active torsions:
REMARK  status: ('A' for Active; 'I' for Inactive)
REMARK    1  A    between atoms: C7_1  and  C21_15
REMARK    2  A    between atoms: C9_3  and  C25_19
REMARK    3  A    between atoms: C10_4  and  C27_21
REMARK    4  A    between atoms: C13_7  and  O1_34
REMARK    5  A    between atoms: C14_8  and  C32_25
REMARK    6  A    between atoms: C14_8  and  C30_29
REMARK    7  A    between atoms: C20_14  and  C34_38
REMARK    8  A    between atoms: C23_17  and  O2_32
REMARK    9  A    between atoms: C24_18  and  O3_36
REMARK   10  A    between atoms: C28_22  and  C35_27
REMARK   11  A    between atoms: C31_24  and  C36_28
REMARK   12  A    between atoms: C30_29  and  O4_30
REMARK   13  A    between atoms: C34_38  and  O5_40
REMARK                            x       y       z     vdW  Elec       q    Type
REMARK                         _______ _______ _______ _____ _____    ______ ____
ROOT
ATOM      1  C7  UNK     0       0.416  -0.248  -0.755  0.00  0.00    +0.000 C 
ATOM      2  C8  UNK     0       1.115   0.076   0.617  0.00  0.00    +0.000 C 
ATOM      3  C9  UNK     0       2.570   0.712   0.567  0.00  0.00    +0.000 C 
ATOM      4  C10 UNK     0      -0.942  -1.062  -0.434  0.00  0.00    +0.000 C 
ATOM      5  C11 UNK     0       3.469  -0.231  -0.335  0.00  0.00    +0.000 C 
ATOM      6  C12 UNK     0       1.401  -1.091  -1.625  0.00  0.00    +0.000 C 
ATOM      7  C13 UNK     0       2.844  -0.537  -1.735  0.00  0.00    +0.000 C 
ATOM      8  C14 UNK     0       5.040   0.040  -0.298  0.00  0.00    +0.000 C 
ATOM      9  C15 UNK     0      -1.886  -0.142   0.346  0.00  0.00    +0.000 C 
ATOM     10  C16 UNK     0      -3.337   0.096  -0.164  0.00  0.00    +0.000 C 
ATOM     11  C17 UNK     0       3.153   0.676   2.020  0.00  0.00    +0.000 C 
ATOM     12  C18 UNK     0       0.141   0.718   1.654  0.00  0.00    +0.000 C 
ATOM     13  C19 UNK     0      -1.630  -1.547  -1.747  0.00  0.00    +0.000 C 
ATOM     14  C20 UNK     0      -4.015  -1.192  -0.802  0.00  0.00    +0.000 C 
ATOM     15  C21 UNK     0       0.065   1.060  -1.546  0.00  0.00    +0.000 C 
ATOM     16  C22 UNK     0      -3.011  -2.154  -1.519  0.00  0.00    +0.000 C 
ATOM     17  C23 UNK     0       5.494   0.039   1.207  0.00  0.00    +0.000 C 
ATOM     18  C24 UNK     0       4.661   0.983   2.106  0.00  0.00    +0.000 C 
ATOM     19  C25 UNK     0       2.529   2.200   0.086  0.00  0.00    +0.000 C 
ATOM     20  C26 UNK     0      -1.335   0.647   1.315  0.00  0.00    +0.000 C 
ATOM     21  C27 UNK     0      -0.715  -2.323   0.472  0.00  0.00    +0.000 C 
ATOM     22  C28 UNK     0      -4.271   0.813   0.900  0.00  0.00    +0.000 C 
ATOM     23  C29 UNK     0      -4.714  -1.978   0.340  0.00  0.00    +0.000 C 
ATOM     24  C31 UNK     0      -5.752   0.334   0.876  0.00  0.00    +0.000 C 
ATOM     25  C32 UNK     0       5.454   1.364  -0.997  0.00  0.00    +0.000 C 
ATOM     26  C33 UNK     0      -5.845  -1.199   1.039  0.00  0.00    +0.000 C 
ATOM     27  C35 UNK     0      -4.199   2.348   0.719  0.00  0.00    +0.000 C 
ATOM     28  C36 UNK     0      -6.608   1.007   1.965  0.00  0.00    +0.000 C 
ENDROOT
BRANCH  17  29
ATOM     29  O2  UNK     0       6.869   0.317   1.349  0.00  0.00    +0.000 OA
ATOM     30  H78 UNK     0       7.003   1.296   1.254  0.00  0.00    +0.000 HD
ENDBRANCH  17  29
BRANCH   7  31
ATOM     31  O1  UNK     0       2.901   0.571  -2.591  0.00  0.00    +0.000 OA
ATOM     32  H74 UNK     0       2.764   0.235  -3.516  0.00  0.00    +0.000 HD
ENDBRANCH   7  31
BRANCH  18  33
ATOM     33  O3  UNK     0       5.092   0.892   3.443  0.00  0.00    +0.000 OA
ATOM     34  H79 UNK     0       4.963  -0.046   3.742  0.00  0.00    +0.000 HD
ENDBRANCH  18  33
BRANCH  14  35
ATOM     35  C34 UNK     0      -5.036  -0.787  -1.868  0.00  0.00    +0.000 C 
ATOM     36  O6  UNK     0      -6.062  -1.495  -2.070  0.00  0.00    +0.000 OA
BRANCH  35  37
ATOM     37  O5  UNK     0      -4.797   0.305  -2.698  0.00  0.00    +0.000 OA
ATOM     38  H84 UNK     0      -5.453   0.558  -3.428  0.00  0.00    +0.000 HD
ENDBRANCH  35  37
ENDBRANCH  14  35
BRANCH   8  39
ATOM     39  C30 UNK     0       5.777  -1.129  -1.040  0.00  0.00    +0.000 C 
BRANCH  39  40
ATOM     40  O4  UNK     0       7.165  -1.116  -0.823  0.00  0.00    +0.000 OA
ATOM     41  H83 UNK     0       7.577  -0.602  -1.565  0.00  0.00    +0.000 HD
ENDBRANCH  39  40
ENDBRANCH   8  39
TORSDOF 7
