REMARK  Name = C:\Users\Maximilian\Desktop\Conformers\converted_pdb\conformers_pdb\Madecassic Acid_conf_40.pdb
REMARK  13 active torsions:
REMARK  status: ('A' for Active; 'I' for Inactive)
REMARK    1  A    between atoms: C7_1  and  C21_15
REMARK    2  A    between atoms: C9_3  and  C25_19
REMARK    3  A    between atoms: C10_4  and  C27_21
REMARK    4  A    between atoms: C13_7  and  O1_34
REMARK    5  A    between atoms: C14_8  and  C32_25
REMARK    6  A    between atoms: C14_8  and  C30_29
REMARK    7  A    between atoms: C20_14  and  C34_38
REMARK    8  A    between atoms: C23_17  and  O2_32
REMARK    9  A    between atoms: C24_18  and  O3_36
REMARK   10  A    between atoms: C28_22  and  C35_27
REMARK   11  A    between atoms: C31_24  and  C36_28
REMARK   12  A    between atoms: C30_29  and  O4_30
REMARK   13  A    between atoms: C34_38  and  O5_40
REMARK                            x       y       z     vdW  Elec       q    Type
REMARK                         _______ _______ _______ _____ _____    ______ ____
ROOT
ATOM      1  C7  UNK     0       0.264   0.115   0.698  0.00  0.00    +0.000 C 
ATOM      2  C8  UNK     0       1.102  -0.477  -0.517  0.00  0.00    +0.000 C 
ATOM      3  C9  UNK     0       2.583  -0.954  -0.192  0.00  0.00    +0.000 C 
ATOM      4  C10 UNK     0      -1.110   0.724   0.096  0.00  0.00    +0.000 C 
ATOM      5  C11 UNK     0       3.308   0.289   0.474  0.00  0.00    +0.000 C 
ATOM      6  C12 UNK     0       1.115   1.196   1.459  0.00  0.00    +0.000 C 
ATOM      7  C13 UNK     0       2.600   0.845   1.742  0.00  0.00    +0.000 C 
ATOM      8  C14 UNK     0       4.889   0.221   0.458  0.00  0.00    +0.000 C 
ATOM      9  C15 UNK     0      -1.887  -0.404  -0.586  0.00  0.00    +0.000 C 
ATOM     10  C16 UNK     0      -3.407  -0.512  -0.447  0.00  0.00    +0.000 C 
ATOM     11  C17 UNK     0       3.358  -1.335  -1.524  0.00  0.00    +0.000 C 
ATOM     12  C18 UNK     0       0.270  -1.463  -1.400  0.00  0.00    +0.000 C 
ATOM     13  C19 UNK     0      -2.015   1.441   1.175  0.00  0.00    +0.000 C 
ATOM     14  C20 UNK     0      -3.781  -0.560   1.070  0.00  0.00    +0.000 C 
ATOM     15  C21 UNK     0      -0.090  -0.989   1.738  0.00  0.00    +0.000 C 
ATOM     16  C22 UNK     0      -3.138   0.629   1.870  0.00  0.00    +0.000 C 
ATOM     17  C23 UNK     0       5.378   0.174  -1.056  0.00  0.00    +0.000 C 
ATOM     18  C24 UNK     0       4.291  -0.253  -2.087  0.00  0.00    +0.000 C 
ATOM     19  C25 UNK     0       2.565  -2.239   0.716  0.00  0.00    +0.000 C 
ATOM     20  C26 UNK     0      -1.231  -1.354  -1.290  0.00  0.00    +0.000 C 
ATOM     21  C27 UNK     0      -0.841   1.788  -1.027  0.00  0.00    +0.000 C 
ATOM     22  C28 UNK     0      -4.168   0.582  -1.268  0.00  0.00    +0.000 C 
ATOM     23  C29 UNK     0      -5.328  -0.559   1.229  0.00  0.00    +0.000 C 
ATOM     24  C31 UNK     0      -5.702   0.459  -1.051  0.00  0.00    +0.000 C 
ATOM     25  C32 UNK     0       5.413  -1.002   1.257  0.00  0.00    +0.000 C 
ATOM     26  C33 UNK     0      -6.029   0.552   0.446  0.00  0.00    +0.000 C 
ATOM     27  C35 UNK     0      -3.817   0.473  -2.767  0.00  0.00    +0.000 C 
ATOM     28  C36 UNK     0      -6.496   1.538  -1.809  0.00  0.00    +0.000 C 
ENDROOT
BRANCH  17  29
ATOM     29  O2  UNK     0       6.490  -0.677  -1.211  0.00  0.00    +0.000 OA
ATOM     30  H78 UNK     0       7.293  -0.166  -0.928  0.00  0.00    +0.000 HD
ENDBRANCH  17  29
BRANCH   7  31
ATOM     31  O1  UNK     0       2.726  -0.009   2.848  0.00  0.00    +0.000 OA
ATOM     32  H74 UNK     0       2.710   0.554   3.664  0.00  0.00    +0.000 HD
ENDBRANCH   7  31
BRANCH  18  33
ATOM     33  O3  UNK     0       3.533   0.846  -2.527  0.00  0.00    +0.000 OA
ATOM     34  H79 UNK     0       4.112   1.374  -3.138  0.00  0.00    +0.000 HD
ENDBRANCH  18  33
BRANCH  14  35
ATOM     35  C34 UNK     0      -3.315  -1.881   1.687  0.00  0.00    +0.000 C 
ATOM     36  O6  UNK     0      -3.451  -2.077   2.926  0.00  0.00    +0.000 OA
BRANCH  35  37
ATOM     37  O5  UNK     0      -2.835  -2.923   0.895  0.00  0.00    +0.000 OA
ATOM     38  H84 UNK     0      -2.566  -3.809   1.305  0.00  0.00    +0.000 HD
ENDBRANCH  35  37
ENDBRANCH  14  35
BRANCH   8  39
ATOM     39  C30 UNK     0       5.491   1.496   1.127  0.00  0.00    +0.000 C 
BRANCH  39  40
ATOM     40  O4  UNK     0       6.883   1.553   0.956  0.00  0.00    +0.000 OA
ATOM     41  H83 UNK     0       7.183   2.392   1.393  0.00  0.00    +0.000 HD
ENDBRANCH  39  40
ENDBRANCH   8  39
TORSDOF 7
