REMARK  Name = C:\Users\Maximilian\Desktop\Conformers\converted_pdb\conformers_pdb\Madecassic Acid_conf_10.pdb
REMARK  13 active torsions:
REMARK  status: ('A' for Active; 'I' for Inactive)
REMARK    1  A    between atoms: C7_1  and  C21_15
REMARK    2  A    between atoms: C9_3  and  C25_19
REMARK    3  A    between atoms: C10_4  and  C27_21
REMARK    4  A    between atoms: C13_7  and  O1_34
REMARK    5  A    between atoms: C14_8  and  C32_25
REMARK    6  A    between atoms: C14_8  and  C30_29
REMARK    7  A    between atoms: C20_14  and  C34_38
REMARK    8  A    between atoms: C23_17  and  O2_32
REMARK    9  A    between atoms: C24_18  and  O3_36
REMARK   10  A    between atoms: C28_22  and  C35_27
REMARK   11  A    between atoms: C31_24  and  C36_28
REMARK   12  A    between atoms: C30_29  and  O4_30
REMARK   13  A    between atoms: C34_38  and  O5_40
REMARK                            x       y       z     vdW  Elec       q    Type
REMARK                         _______ _______ _______ _____ _____    ______ ____
ROOT
ATOM      1  C7  UNK     0       0.388  -0.630   0.667  0.00  0.00    +0.000 C 
ATOM      2  C8  UNK     0       1.021  -0.084  -0.673  0.00  0.00    +0.000 C 
ATOM      3  C9  UNK     0       2.589  -0.325  -0.913  0.00  0.00    +0.000 C 
ATOM      4  C10 UNK     0      -1.096   0.005   0.858  0.00  0.00    +0.000 C 
ATOM      5  C11 UNK     0       3.358   0.124   0.393  0.00  0.00    +0.000 C 
ATOM      6  C12 UNK     0       1.307  -0.236   1.868  0.00  0.00    +0.000 C 
ATOM      7  C13 UNK     0       2.805  -0.542   1.690  0.00  0.00    +0.000 C 
ATOM      8  C14 UNK     0       4.941   0.242   0.279  0.00  0.00    +0.000 C 
ATOM      9  C15 UNK     0      -1.937  -0.172  -0.425  0.00  0.00    +0.000 C 
ATOM     10  C16 UNK     0      -3.483  -0.150  -0.402  0.00  0.00    +0.000 C 
ATOM     11  C17 UNK     0       3.042   0.628  -2.073  0.00  0.00    +0.000 C 
ATOM     12  C18 UNK     0       0.125  -0.424  -1.890  0.00  0.00    +0.000 C 
ATOM     13  C19 UNK     0      -1.833  -0.672   2.067  0.00  0.00    +0.000 C 
ATOM     14  C20 UNK     0      -4.088  -0.850   0.870  0.00  0.00    +0.000 C 
ATOM     15  C21 UNK     0       0.287  -2.189   0.616  0.00  0.00    +0.000 C 
ATOM     16  C22 UNK     0      -3.333  -0.374   2.138  0.00  0.00    +0.000 C 
ATOM     17  C23 UNK     0       5.269   1.181  -0.933  0.00  0.00    +0.000 C 
ATOM     18  C24 UNK     0       4.570   0.762  -2.244  0.00  0.00    +0.000 C 
ATOM     19  C25 UNK     0       2.922  -1.796  -1.346  0.00  0.00    +0.000 C 
ATOM     20  C26 UNK     0      -1.347  -0.270  -1.640  0.00  0.00    +0.000 C 
ATOM     21  C27 UNK     0      -1.056   1.539   1.160  0.00  0.00    +0.000 C 
ATOM     22  C28 UNK     0      -4.139   1.253  -0.639  0.00  0.00    +0.000 C 
ATOM     23  C29 UNK     0      -5.603  -0.485   1.044  0.00  0.00    +0.000 C 
ATOM     24  C31 UNK     0      -5.667   1.096  -0.949  0.00  0.00    +0.000 C 
ATOM     25  C32 UNK     0       5.666  -1.122   0.108  0.00  0.00    +0.000 C 
ATOM     26  C33 UNK     0      -6.282  -0.167  -0.290  0.00  0.00    +0.000 C 
ATOM     27  C35 UNK     0      -3.451   2.060  -1.757  0.00  0.00    +0.000 C 
ATOM     28  C36 UNK     0      -6.454   2.351  -0.527  0.00  0.00    +0.000 C 
ENDROOT
BRANCH  17  29
ATOM     29  O2  UNK     0       6.659   1.227  -1.155  0.00  0.00    +0.000 OA
ATOM     30  H78 UNK     0       6.877   2.142  -1.475  0.00  0.00    +0.000 HD
ENDBRANCH  17  29
BRANCH   7  31
ATOM     31  O1  UNK     0       3.054  -1.920   1.740  0.00  0.00    +0.000 OA
ATOM     32  H74 UNK     0       2.908  -2.211   2.678  0.00  0.00    +0.000 HD
ENDBRANCH   7  31
BRANCH  18  33
ATOM     33  O3  UNK     0       4.856   1.685  -3.267  0.00  0.00    +0.000 OA
ATOM     34  H79 UNK     0       4.516   2.574  -2.980  0.00  0.00    +0.000 HD
ENDBRANCH  18  33
BRANCH  14  35
ATOM     35  C34 UNK     0      -3.965  -2.369   0.757  0.00  0.00    +0.000 C 
ATOM     36  O6  UNK     0      -4.444  -3.110   1.659  0.00  0.00    +0.000 OA
BRANCH  35  37
ATOM     37  O5  UNK     0      -3.288  -2.959  -0.309  0.00  0.00    +0.000 OA
ATOM     38  H84 UNK     0      -3.193  -3.966  -0.371  0.00  0.00    +0.000 HD
ENDBRANCH  35  37
ENDBRANCH  14  35
BRANCH   8  39
ATOM     39  C30 UNK     0       5.532   0.944   1.553  0.00  0.00    +0.000 C 
BRANCH  39  40
ATOM     40  O4  UNK     0       5.646   0.065   2.645  0.00  0.00    +0.000 OA
ATOM     41  H83 UNK     0       6.576  -0.284   2.649  0.00  0.00    +0.000 HD
ENDBRANCH  39  40
ENDBRANCH   8  39
TORSDOF 7
