REMARK  Name = C:\Users\Maximilian\Desktop\Conformers\converted_pdb\conformers_pdb\Madecassic Acid_conf_26.pdb
REMARK  13 active torsions:
REMARK  status: ('A' for Active; 'I' for Inactive)
REMARK    1  A    between atoms: C7_1  and  C21_15
REMARK    2  A    between atoms: C9_3  and  C25_19
REMARK    3  A    between atoms: C10_4  and  C27_21
REMARK    4  A    between atoms: C13_7  and  O1_34
REMARK    5  A    between atoms: C14_8  and  C32_25
REMARK    6  A    between atoms: C14_8  and  C30_29
REMARK    7  A    between atoms: C20_14  and  C34_38
REMARK    8  A    between atoms: C23_17  and  O2_32
REMARK    9  A    between atoms: C24_18  and  O3_36
REMARK   10  A    between atoms: C28_22  and  C35_27
REMARK   11  A    between atoms: C31_24  and  C36_28
REMARK   12  A    between atoms: C30_29  and  O4_30
REMARK   13  A    between atoms: C34_38  and  O5_40
REMARK                            x       y       z     vdW  Elec       q    Type
REMARK                         _______ _______ _______ _____ _____    ______ ____
ROOT
ATOM      1  C7  UNK     0       0.350  -0.592  -0.693  0.00  0.00    +0.000 C 
ATOM      2  C8  UNK     0       1.039   0.676  -0.049  0.00  0.00    +0.000 C 
ATOM      3  C9  UNK     0       2.613   0.900  -0.256  0.00  0.00    +0.000 C 
ATOM      4  C10 UNK     0      -1.099  -0.811   0.002  0.00  0.00    +0.000 C 
ATOM      5  C11 UNK     0       3.345  -0.478  -0.021  0.00  0.00    +0.000 C 
ATOM      6  C12 UNK     0       1.255  -1.849  -0.487  0.00  0.00    +0.000 C 
ATOM      7  C13 UNK     0       2.735  -1.651  -0.851  0.00  0.00    +0.000 C 
ATOM      8  C14 UNK     0       4.938  -0.440   0.038  0.00  0.00    +0.000 C 
ATOM      9  C15 UNK     0      -1.910   0.507  -0.024  0.00  0.00    +0.000 C 
ATOM     10  C16 UNK     0      -3.452   0.516   0.059  0.00  0.00    +0.000 C 
ATOM     11  C17 UNK     0       3.103   1.942   0.832  0.00  0.00    +0.000 C 
ATOM     12  C18 UNK     0       0.176   1.928  -0.318  0.00  0.00    +0.000 C 
ATOM     13  C19 UNK     0      -1.890  -1.946  -0.736  0.00  0.00    +0.000 C 
ATOM     14  C20 UNK     0      -4.110  -0.664  -0.744  0.00  0.00    +0.000 C 
ATOM     15  C21 UNK     0       0.148  -0.369  -2.232  0.00  0.00    +0.000 C 
ATOM     16  C22 UNK     0      -3.385  -1.993  -0.402  0.00  0.00    +0.000 C 
ATOM     17  C23 UNK     0       5.454   0.917   0.670  0.00  0.00    +0.000 C 
ATOM     18  C24 UNK     0       4.408   1.597   1.578  0.00  0.00    +0.000 C 
ATOM     19  C25 UNK     0       2.960   1.522  -1.648  0.00  0.00    +0.000 C 
ATOM     20  C26 UNK     0      -1.288   1.714  -0.052  0.00  0.00    +0.000 C 
ATOM     21  C27 UNK     0      -0.995  -1.244   1.503  0.00  0.00    +0.000 C 
ATOM     22  C28 UNK     0      -4.045   0.616   1.504  0.00  0.00    +0.000 C 
ATOM     23  C29 UNK     0      -5.622  -0.830  -0.370  0.00  0.00    +0.000 C 
ATOM     24  C31 UNK     0      -5.574   0.956   1.446  0.00  0.00    +0.000 C 
ATOM     25  C32 UNK     0       5.576  -0.661  -1.361  0.00  0.00    +0.000 C 
ATOM     26  C33 UNK     0      -6.249   0.471   0.136  0.00  0.00    +0.000 C 
ATOM     27  C35 UNK     0      -3.307   1.642   2.385  0.00  0.00    +0.000 C 
ATOM     28  C36 UNK     0      -6.315   0.388   2.670  0.00  0.00    +0.000 C 
ENDROOT
BRANCH  17  29
ATOM     29  O2  UNK     0       5.881   1.823  -0.319  0.00  0.00    +0.000 OA
ATOM     30  H78 UNK     0       6.443   2.510   0.129  0.00  0.00    +0.000 HD
ENDBRANCH  17  29
BRANCH   7  31
ATOM     31  O1  UNK     0       2.892  -1.473  -2.234  0.00  0.00    +0.000 OA
ATOM     32  H74 UNK     0       2.715  -2.351  -2.664  0.00  0.00    +0.000 HD
ENDBRANCH   7  31
BRANCH  18  33
ATOM     33  O3  UNK     0       4.115   0.787   2.690  0.00  0.00    +0.000 OA
ATOM     34  H79 UNK     0       4.894   0.844   3.303  0.00  0.00    +0.000 HD
ENDBRANCH  18  33
BRANCH  14  35
ATOM     35  C34 UNK     0      -4.021  -0.409  -2.249  0.00  0.00    +0.000 C 
ATOM     36  O6  UNK     0      -4.296  -1.335  -3.061  0.00  0.00    +0.000 OA
BRANCH  35  37
ATOM     37  O5  UNK     0      -3.673   0.844  -2.750  0.00  0.00    +0.000 OA
ATOM     38  H84 UNK     0      -3.619   1.008  -3.748  0.00  0.00    +0.000 HD
ENDBRANCH  35  37
ENDBRANCH  14  35
BRANCH   8  39
ATOM     39  C30 UNK     0       5.436  -1.614   0.949  0.00  0.00    +0.000 C 
BRANCH  39  40
ATOM     40  O4  UNK     0       6.839  -1.648   1.015  0.00  0.00    +0.000 OA
ATOM     41  H83 UNK     0       7.069  -2.367   1.660  0.00  0.00    +0.000 HD
ENDBRANCH  39  40
ENDBRANCH   8  39
TORSDOF 7
