REMARK  Name = C:\Users\Maximilian\Desktop\Conformers\converted_pdb\conformers_pdb\Madecassic Acid_conf_24.pdb
REMARK  13 active torsions:
REMARK  status: ('A' for Active; 'I' for Inactive)
REMARK    1  A    between atoms: C7_1  and  C21_15
REMARK    2  A    between atoms: C9_3  and  C25_19
REMARK    3  A    between atoms: C10_4  and  C27_21
REMARK    4  A    between atoms: C13_7  and  O1_34
REMARK    5  A    between atoms: C14_8  and  C32_25
REMARK    6  A    between atoms: C14_8  and  C30_29
REMARK    7  A    between atoms: C20_14  and  C34_38
REMARK    8  A    between atoms: C23_17  and  O2_32
REMARK    9  A    between atoms: C24_18  and  O3_36
REMARK   10  A    between atoms: C28_22  and  C35_27
REMARK   11  A    between atoms: C31_24  and  C36_28
REMARK   12  A    between atoms: C30_29  and  O4_30
REMARK   13  A    between atoms: C34_38  and  O5_40
REMARK                            x       y       z     vdW  Elec       q    Type
REMARK                         _______ _______ _______ _____ _____    ______ ____
ROOT
ATOM      1  C7  UNK     0      -0.368   0.572   0.545  0.00  0.00    +0.000 C 
ATOM      2  C8  UNK     0      -1.038  -0.125  -0.697  0.00  0.00    +0.000 C 
ATOM      3  C9  UNK     0      -2.578   0.183  -0.975  0.00  0.00    +0.000 C 
ATOM      4  C10 UNK     0       1.083  -0.109   0.783  0.00  0.00    +0.000 C 
ATOM      5  C11 UNK     0      -3.370  -0.079   0.369  0.00  0.00    +0.000 C 
ATOM      6  C12 UNK     0      -1.284   0.387   1.799  0.00  0.00    +0.000 C 
ATOM      7  C13 UNK     0      -2.783   0.699   1.590  0.00  0.00    +0.000 C 
ATOM      8  C14 UNK     0      -4.960  -0.135   0.259  0.00  0.00    +0.000 C 
ATOM      9  C15 UNK     0       1.940   0.097  -0.478  0.00  0.00    +0.000 C 
ATOM     10  C16 UNK     0       3.477   0.199  -0.428  0.00  0.00    +0.000 C 
ATOM     11  C17 UNK     0      -3.082  -0.860  -2.030  0.00  0.00    +0.000 C 
ATOM     12  C18 UNK     0      -0.128  -0.079  -1.961  0.00  0.00    +0.000 C 
ATOM     13  C19 UNK     0       1.768   0.488   2.062  0.00  0.00    +0.000 C 
ATOM     14  C20 UNK     0       3.991   0.929   0.867  0.00  0.00    +0.000 C 
ATOM     15  C21 UNK     0      -0.201   2.110   0.287  0.00  0.00    +0.000 C 
ATOM     16  C22 UNK     0       3.289   0.328   2.111  0.00  0.00    +0.000 C 
ATOM     17  C23 UNK     0      -5.338  -1.166  -0.862  0.00  0.00    +0.000 C 
ATOM     18  C24 UNK     0      -4.614  -0.906  -2.198  0.00  0.00    +0.000 C 
ATOM     19  C25 UNK     0      -2.798   1.620  -1.562  0.00  0.00    +0.000 C 
ATOM     20  C26 UNK     0       1.351   0.090  -1.700  0.00  0.00    +0.000 C 
ATOM     21  C27 UNK     0       1.026  -1.659   0.994  0.00  0.00    +0.000 C 
ATOM     22  C28 UNK     0       4.224  -1.162  -0.639  0.00  0.00    +0.000 C 
ATOM     23  C29 UNK     0       5.535   0.742   1.056  0.00  0.00    +0.000 C 
ATOM     24  C31 UNK     0       5.761  -0.928  -0.848  0.00  0.00    +0.000 C 
ATOM     25  C32 UNK     0      -5.611   1.245  -0.031  0.00  0.00    +0.000 C 
ATOM     26  C33 UNK     0       6.257   0.411  -0.250  0.00  0.00    +0.000 C 
ATOM     27  C35 UNK     0       3.664  -1.990  -1.814  0.00  0.00    +0.000 C 
ATOM     28  C36 UNK     0       6.579  -2.106  -0.286  0.00  0.00    +0.000 C 
ENDROOT
BRANCH  17  29
ATOM     29  O2  UNK     0      -6.725  -1.150  -1.104  0.00  0.00    +0.000 OA
ATOM     30  H78 UNK     0      -7.032  -2.095  -1.153  0.00  0.00    +0.000 HD
ENDBRANCH  17  29
BRANCH   7  31
ATOM     31  O1  UNK     0      -3.010   2.080   1.505  0.00  0.00    +0.000 OA
ATOM     32  H74 UNK     0      -2.845   2.460   2.407  0.00  0.00    +0.000 HD
ENDBRANCH   7  31
BRANCH  18  33
ATOM     33  O3  UNK     0      -4.966  -1.891  -3.141  0.00  0.00    +0.000 OA
ATOM     34  H79 UNK     0      -4.623  -2.764  -2.816  0.00  0.00    +0.000 HD
ENDBRANCH  18  33
BRANCH  14  35
ATOM     35  C34 UNK     0       3.701   2.428   0.803  0.00  0.00    +0.000 C 
ATOM     36  O6  UNK     0       3.244   2.965  -0.242  0.00  0.00    +0.000 OA
BRANCH  35  37
ATOM     37  O5  UNK     0       3.945   3.225   1.921  0.00  0.00    +0.000 OA
ATOM     38  H84 UNK     0       3.757   4.220   1.901  0.00  0.00    +0.000 HD
ENDBRANCH  35  37
ENDBRANCH  14  35
BRANCH   8  39
ATOM     39  C30 UNK     0      -5.549  -0.648   1.619  0.00  0.00    +0.000 C 
BRANCH  39  40
ATOM     40  O4  UNK     0      -6.908  -0.995   1.519  0.00  0.00    +0.000 OA
ATOM     41  H83 UNK     0      -7.438  -0.201   1.794  0.00  0.00    +0.000 HD
ENDBRANCH  39  40
ENDBRANCH   8  39
TORSDOF 7
