REMARK  Name = C:\Users\Maximilian\Desktop\Conformers\converted_pdb\conformers_pdb\Madecassic Acid_conf_46.pdb
REMARK  13 active torsions:
REMARK  status: ('A' for Active; 'I' for Inactive)
REMARK    1  A    between atoms: C7_1  and  C21_15
REMARK    2  A    between atoms: C9_3  and  C25_19
REMARK    3  A    between atoms: C10_4  and  C27_21
REMARK    4  A    between atoms: C13_7  and  O1_34
REMARK    5  A    between atoms: C14_8  and  C32_25
REMARK    6  A    between atoms: C14_8  and  C30_29
REMARK    7  A    between atoms: C20_14  and  C34_38
REMARK    8  A    between atoms: C23_17  and  O2_32
REMARK    9  A    between atoms: C24_18  and  O3_36
REMARK   10  A    between atoms: C28_22  and  C35_27
REMARK   11  A    between atoms: C31_24  and  C36_28
REMARK   12  A    between atoms: C30_29  and  O4_30
REMARK   13  A    between atoms: C34_38  and  O5_40
REMARK                            x       y       z     vdW  Elec       q    Type
REMARK                         _______ _______ _______ _____ _____    ______ ____
ROOT
ATOM      1  C7  UNK     0       0.422   0.848  -0.394  0.00  0.00    +0.000 C 
ATOM      2  C8  UNK     0       1.052  -0.088   0.711  0.00  0.00    +0.000 C 
ATOM      3  C9  UNK     0       2.622   0.008   1.027  0.00  0.00    +0.000 C 
ATOM      4  C10 UNK     0      -1.040   0.265  -0.797  0.00  0.00    +0.000 C 
ATOM      5  C11 UNK     0       3.405   0.063  -0.339  0.00  0.00    +0.000 C 
ATOM      6  C12 UNK     0       1.379   0.903  -1.634  0.00  0.00    +0.000 C 
ATOM      7  C13 UNK     0       2.860   1.157  -1.309  0.00  0.00    +0.000 C 
ATOM      8  C14 UNK     0       4.995  -0.051  -0.266  0.00  0.00    +0.000 C 
ATOM      9  C15 UNK     0      -1.891   0.017   0.477  0.00  0.00    +0.000 C 
ATOM     10  C16 UNK     0      -3.436   0.029   0.443  0.00  0.00    +0.000 C 
ATOM     11  C17 UNK     0       3.030  -1.304   1.808  0.00  0.00    +0.000 C 
ATOM     12  C18 UNK     0       0.160  -0.085   1.973  0.00  0.00    +0.000 C 
ATOM     13  C19 UNK     0      -1.787   1.244  -1.781  0.00  0.00    +0.000 C 
ATOM     14  C20 UNK     0      -4.047   1.095  -0.560  0.00  0.00    +0.000 C 
ATOM     15  C21 UNK     0       0.237   2.301   0.158  0.00  0.00    +0.000 C 
ATOM     16  C22 UNK     0      -2.948   2.015  -1.146  0.00  0.00    +0.000 C 
ATOM     17  C23 UNK     0       5.469  -0.930   0.962  0.00  0.00    +0.000 C 
ATOM     18  C24 UNK     0       4.410  -1.930   1.474  0.00  0.00    +0.000 C 
ATOM     19  C25 UNK     0       2.982   1.212   1.960  0.00  0.00    +0.000 C 
ATOM     20  C26 UNK     0      -1.303  -0.229   1.676  0.00  0.00    +0.000 C 
ATOM     21  C27 UNK     0      -0.970  -1.117  -1.525  0.00  0.00    +0.000 C 
ATOM     22  C28 UNK     0      -4.070  -1.406   0.302  0.00  0.00    +0.000 C 
ATOM     23  C29 UNK     0      -4.795   0.375  -1.724  0.00  0.00    +0.000 C 
ATOM     24  C31 UNK     0      -5.608  -1.263   0.101  0.00  0.00    +0.000 C 
ATOM     25  C32 UNK     0       5.663   1.353  -0.204  0.00  0.00    +0.000 C 
ATOM     26  C33 UNK     0      -5.921  -0.557  -1.241  0.00  0.00    +0.000 C 
ATOM     27  C35 UNK     0      -3.723  -2.307   1.506  0.00  0.00    +0.000 C 
ATOM     28  C36 UNK     0      -6.376  -2.597   0.164  0.00  0.00    +0.000 C 
ENDROOT
BRANCH  17  29
ATOM     29  O2  UNK     0       5.913  -0.129   2.032  0.00  0.00    +0.000 OA
ATOM     30  H78 UNK     0       6.479  -0.697   2.619  0.00  0.00    +0.000 HD
ENDBRANCH  17  29
BRANCH   7  31
ATOM     31  O1  UNK     0       3.049   2.459  -0.823  0.00  0.00    +0.000 OA
ATOM     32  H74 UNK     0       2.916   3.080  -1.587  0.00  0.00    +0.000 HD
ENDBRANCH   7  31
BRANCH  18  33
ATOM     33  O3  UNK     0       4.303  -3.039   0.612  0.00  0.00    +0.000 OA
ATOM     34  H79 UNK     0       3.669  -2.823  -0.116  0.00  0.00    +0.000 HD
ENDBRANCH  18  33
BRANCH  14  35
ATOM     35  C34 UNK     0      -5.011   2.030   0.174  0.00  0.00    +0.000 C 
ATOM     36  O6  UNK     0      -6.105   2.381  -0.349  0.00  0.00    +0.000 OA
BRANCH  35  37
ATOM     37  O5  UNK     0      -4.640   2.596   1.393  0.00  0.00    +0.000 OA
ATOM     38  H84 UNK     0      -5.256   3.232   1.882  0.00  0.00    +0.000 HD
ENDBRANCH  35  37
ENDBRANCH  14  35
BRANCH   8  39
ATOM     39  C30 UNK     0       5.506  -0.739  -1.581  0.00  0.00    +0.000 C 
BRANCH  39  40
ATOM     40  O4  UNK     0       6.908  -0.848  -1.604  0.00  0.00    +0.000 OA
ATOM     41  H83 UNK     0       7.257  -0.057  -2.091  0.00  0.00    +0.000 HD
ENDBRANCH  39  40
ENDBRANCH   8  39
TORSDOF 7
