REMARK  Name = C:\Users\Maximilian\Desktop\Conformers\converted_pdb\conformers_pdb\Madecassic Acid_conf_39.pdb
REMARK  13 active torsions:
REMARK  status: ('A' for Active; 'I' for Inactive)
REMARK    1  A    between atoms: C7_1  and  C21_15
REMARK    2  A    between atoms: C9_3  and  C25_19
REMARK    3  A    between atoms: C10_4  and  C27_21
REMARK    4  A    between atoms: C13_7  and  O1_34
REMARK    5  A    between atoms: C14_8  and  C32_25
REMARK    6  A    between atoms: C14_8  and  C30_29
REMARK    7  A    between atoms: C20_14  and  C34_38
REMARK    8  A    between atoms: C23_17  and  O2_32
REMARK    9  A    between atoms: C24_18  and  O3_36
REMARK   10  A    between atoms: C28_22  and  C35_27
REMARK   11  A    between atoms: C31_24  and  C36_28
REMARK   12  A    between atoms: C30_29  and  O4_30
REMARK   13  A    between atoms: C34_38  and  O5_40
REMARK                            x       y       z     vdW  Elec       q    Type
REMARK                         _______ _______ _______ _____ _____    ______ ____
ROOT
ATOM      1  C7  UNK     0      -0.377  -0.563  -0.639  0.00  0.00    +0.000 C 
ATOM      2  C8  UNK     0      -1.192   0.358   0.344  0.00  0.00    +0.000 C 
ATOM      3  C9  UNK     0      -2.700  -0.039   0.633  0.00  0.00    +0.000 C 
ATOM      4  C10 UNK     0       1.028   0.178  -0.940  0.00  0.00    +0.000 C 
ATOM      5  C11 UNK     0      -3.422  -0.194  -0.767  0.00  0.00    +0.000 C 
ATOM      6  C12 UNK     0      -1.208  -0.783  -1.947  0.00  0.00    +0.000 C 
ATOM      7  C13 UNK     0      -2.695  -1.168  -1.746  0.00  0.00    +0.000 C 
ATOM      8  C14 UNK     0      -5.007  -0.284  -0.725  0.00  0.00    +0.000 C 
ATOM      9  C15 UNK     0       1.826   0.246   0.365  0.00  0.00    +0.000 C 
ATOM     10  C16 UNK     0       3.287  -0.282   0.412  0.00  0.00    +0.000 C 
ATOM     11  C17 UNK     0      -3.373   1.159   1.387  0.00  0.00    +0.000 C 
ATOM     12  C18 UNK     0      -0.357   0.790   1.591  0.00  0.00    +0.000 C 
ATOM     13  C19 UNK     0       1.839  -0.587  -2.029  0.00  0.00    +0.000 C 
ATOM     14  C20 UNK     0       4.112  -0.002  -0.917  0.00  0.00    +0.000 C 
ATOM     15  C21 UNK     0      -0.106  -1.975  -0.008  0.00  0.00    +0.000 C 
ATOM     16  C22 UNK     0       3.257  -0.059  -2.227  0.00  0.00    +0.000 C 
ATOM     17  C23 UNK     0      -5.547   0.945   0.084  0.00  0.00    +0.000 C 
ATOM     18  C24 UNK     0      -4.911   1.075   1.478  0.00  0.00    +0.000 C 
ATOM     19  C25 UNK     0      -2.793  -1.306   1.543  0.00  0.00    +0.000 C 
ATOM     20  C26 UNK     0       1.136   0.527   1.512  0.00  0.00    +0.000 C 
ATOM     21  C27 UNK     0       0.852   1.663  -1.423  0.00  0.00    +0.000 C 
ATOM     22  C28 UNK     0       4.071   0.169   1.718  0.00  0.00    +0.000 C 
ATOM     23  C29 UNK     0       4.737   1.415  -0.796  0.00  0.00    +0.000 C 
ATOM     24  C31 UNK     0       5.572   0.512   1.490  0.00  0.00    +0.000 C 
ATOM     25  C32 UNK     0      -5.538  -1.608  -0.108  0.00  0.00    +0.000 C 
ATOM     26  C33 UNK     0       5.742   1.558   0.364  0.00  0.00    +0.000 C 
ATOM     27  C35 UNK     0       3.924  -0.905   2.821  0.00  0.00    +0.000 C 
ATOM     28  C36 UNK     0       6.260   1.033   2.770  0.00  0.00    +0.000 C 
ENDROOT
BRANCH  17  29
ATOM     29  O2  UNK     0      -6.948   0.871   0.234  0.00  0.00    +0.000 OA
ATOM     30  H78 UNK     0      -7.355   1.477  -0.438  0.00  0.00    +0.000 HD
ENDBRANCH  17  29
BRANCH   7  31
ATOM     31  O1  UNK     0      -2.829  -2.510  -1.364  0.00  0.00    +0.000 OA
ATOM     32  H74 UNK     0      -2.546  -3.066  -2.134  0.00  0.00    +0.000 HD
ENDBRANCH   7  31
BRANCH  18  33
ATOM     33  O3  UNK     0      -5.397   2.247   2.083  0.00  0.00    +0.000 OA
ATOM     34  H79 UNK     0      -5.204   2.174   3.054  0.00  0.00    +0.000 HD
ENDBRANCH  18  33
BRANCH  14  35
ATOM     35  C34 UNK     0       5.226  -1.033  -1.100  0.00  0.00    +0.000 C 
ATOM     36  O6  UNK     0       5.096  -2.215  -0.675  0.00  0.00    +0.000 OA
BRANCH  35  37
ATOM     37  O5  UNK     0       6.364  -0.696  -1.833  0.00  0.00    +0.000 OA
ATOM     38  H84 UNK     0       7.122  -1.358  -1.951  0.00  0.00    +0.000 HD
ENDBRANCH  35  37
ENDBRANCH  14  35
BRANCH   8  39
ATOM     39  C30 UNK     0      -5.607  -0.212  -2.167  0.00  0.00    +0.000 C 
BRANCH  39  40
ATOM     40  O4  UNK     0      -5.097   0.875  -2.896  0.00  0.00    +0.000 OA
ATOM     41  H83 UNK     0      -5.739   1.627  -2.790  0.00  0.00    +0.000 HD
ENDBRANCH  39  40
ENDBRANCH   8  39
TORSDOF 7
