REMARK  Name = C:\Users\Maximilian\Desktop\Conformers\converted_pdb\conformers_pdb\Madecassic Acid_conf_29.pdb
REMARK  13 active torsions:
REMARK  status: ('A' for Active; 'I' for Inactive)
REMARK    1  A    between atoms: C7_1  and  C21_15
REMARK    2  A    between atoms: C9_3  and  C25_19
REMARK    3  A    between atoms: C10_4  and  C27_21
REMARK    4  A    between atoms: C13_7  and  O1_34
REMARK    5  A    between atoms: C14_8  and  C32_25
REMARK    6  A    between atoms: C14_8  and  C30_29
REMARK    7  A    between atoms: C20_14  and  C34_38
REMARK    8  A    between atoms: C23_17  and  O2_32
REMARK    9  A    between atoms: C24_18  and  O3_36
REMARK   10  A    between atoms: C28_22  and  C35_27
REMARK   11  A    between atoms: C31_24  and  C36_28
REMARK   12  A    between atoms: C30_29  and  O4_30
REMARK   13  A    between atoms: C34_38  and  O5_40
REMARK                            x       y       z     vdW  Elec       q    Type
REMARK                         _______ _______ _______ _____ _____    ______ ____
ROOT
ATOM      1  C7  UNK     0      -0.497  -0.937  -0.620  0.00  0.00    +0.000 C 
ATOM      2  C8  UNK     0      -1.069  -0.511   0.812  0.00  0.00    +0.000 C 
ATOM      3  C9  UNK     0      -2.616  -0.735   1.102  0.00  0.00    +0.000 C 
ATOM      4  C10 UNK     0       0.888  -0.117  -0.812  0.00  0.00    +0.000 C 
ATOM      5  C11 UNK     0      -3.388  -0.168  -0.155  0.00  0.00    +0.000 C 
ATOM      6  C12 UNK     0      -1.525  -0.666  -1.789  0.00  0.00    +0.000 C 
ATOM      7  C13 UNK     0      -3.019  -0.909  -1.459  0.00  0.00    +0.000 C 
ATOM      8  C14 UNK     0      -4.899   0.251   0.076  0.00  0.00    +0.000 C 
ATOM      9  C15 UNK     0       1.841  -0.439   0.365  0.00  0.00    +0.000 C 
ATOM     10  C16 UNK     0       3.369  -0.261   0.232  0.00  0.00    +0.000 C 
ATOM     11  C17 UNK     0      -3.102   0.060   2.379  0.00  0.00    +0.000 C 
ATOM     12  C18 UNK     0      -0.107  -1.001   1.923  0.00  0.00    +0.000 C 
ATOM     13  C19 UNK     0       1.581  -0.467  -2.182  0.00  0.00    +0.000 C 
ATOM     14  C20 UNK     0       3.945  -0.743  -1.167  0.00  0.00    +0.000 C 
ATOM     15  C21 UNK     0      -0.179  -2.475  -0.704  0.00  0.00    +0.000 C 
ATOM     16  C22 UNK     0       2.822  -1.363  -2.046  0.00  0.00    +0.000 C 
ATOM     17  C23 UNK     0      -4.955   1.383   1.187  0.00  0.00    +0.000 C 
ATOM     18  C24 UNK     0      -3.708   1.446   2.120  0.00  0.00    +0.000 C 
ATOM     19  C25 UNK     0      -2.883  -2.239   1.430  0.00  0.00    +0.000 C 
ATOM     20  C26 UNK     0       1.352  -0.808   1.581  0.00  0.00    +0.000 C 
ATOM     21  C27 UNK     0       0.683   1.440  -0.770  0.00  0.00    +0.000 C 
ATOM     22  C28 UNK     0       3.840   1.187   0.636  0.00  0.00    +0.000 C 
ATOM     23  C29 UNK     0       4.598   0.436  -1.937  0.00  0.00    +0.000 C 
ATOM     24  C31 UNK     0       5.366   1.352   0.359  0.00  0.00    +0.000 C 
ATOM     25  C32 UNK     0      -5.782  -0.960   0.476  0.00  0.00    +0.000 C 
ATOM     26  C33 UNK     0       5.711   1.128  -1.138  0.00  0.00    +0.000 C 
ATOM     27  C35 UNK     0       3.494   1.505   2.107  0.00  0.00    +0.000 C 
ATOM     28  C36 UNK     0       5.926   2.714   0.812  0.00  0.00    +0.000 C 
ENDROOT
BRANCH  17  29
ATOM     29  O2  UNK     0      -6.124   1.261   1.965  0.00  0.00    +0.000 OA
ATOM     30  H78 UNK     0      -6.302   2.149   2.373  0.00  0.00    +0.000 HD
ENDBRANCH  17  29
BRANCH   7  31
ATOM     31  O1  UNK     0      -3.329  -2.275  -1.387  0.00  0.00    +0.000 OA
ATOM     32  H74 UNK     0      -3.288  -2.632  -2.312  0.00  0.00    +0.000 HD
ENDBRANCH   7  31
BRANCH  18  33
ATOM     33  O3  UNK     0      -2.725   2.302   1.593  0.00  0.00    +0.000 OA
ATOM     34  H79 UNK     0      -3.040   3.232   1.741  0.00  0.00    +0.000 HD
ENDBRANCH  18  33
BRANCH  14  35
ATOM     35  C34 UNK     0       5.025  -1.817  -0.986  0.00  0.00    +0.000 C 
ATOM     36  O6  UNK     0       5.258  -2.648  -1.908  0.00  0.00    +0.000 OA
BRANCH  35  37
ATOM     37  O5  UNK     0       5.830  -1.843   0.151  0.00  0.00    +0.000 OA
ATOM     38  H84 UNK     0       6.566  -2.531   0.253  0.00  0.00    +0.000 HD
ENDBRANCH  35  37
ENDBRANCH  14  35
BRANCH   8  39
ATOM     39  C30 UNK     0      -5.535   0.838  -1.224  0.00  0.00    +0.000 C 
BRANCH  39  40
ATOM     40  O4  UNK     0      -4.724   1.837  -1.784  0.00  0.00    +0.000 OA
ATOM     41  H83 UNK     0      -5.187   2.140  -2.608  0.00  0.00    +0.000 HD
ENDBRANCH  39  40
ENDBRANCH   8  39
TORSDOF 7
