REMARK  Name = C:\Users\Maximilian\Desktop\Conformers\converted_pdb\conformers_pdb\Madecassic Acid_conf_23.pdb
REMARK  13 active torsions:
REMARK  status: ('A' for Active; 'I' for Inactive)
REMARK    1  A    between atoms: C7_1  and  C21_15
REMARK    2  A    between atoms: C9_3  and  C25_19
REMARK    3  A    between atoms: C10_4  and  C27_21
REMARK    4  A    between atoms: C13_7  and  O1_34
REMARK    5  A    between atoms: C14_8  and  C32_25
REMARK    6  A    between atoms: C14_8  and  C30_29
REMARK    7  A    between atoms: C20_14  and  C34_38
REMARK    8  A    between atoms: C23_17  and  O2_32
REMARK    9  A    between atoms: C24_18  and  O3_36
REMARK   10  A    between atoms: C28_22  and  C35_27
REMARK   11  A    between atoms: C31_24  and  C36_28
REMARK   12  A    between atoms: C30_29  and  O4_30
REMARK   13  A    between atoms: C34_38  and  O5_40
REMARK                            x       y       z     vdW  Elec       q    Type
REMARK                         _______ _______ _______ _____ _____    ______ ____
ROOT
ATOM      1  C7  UNK     0      -0.361  -0.750  -0.681  0.00  0.00    +0.000 C 
ATOM      2  C8  UNK     0      -1.086   0.006   0.505  0.00  0.00    +0.000 C 
ATOM      3  C9  UNK     0      -2.682  -0.147   0.626  0.00  0.00    +0.000 C 
ATOM      4  C10 UNK     0       1.153  -0.182  -0.831  0.00  0.00    +0.000 C 
ATOM      5  C11 UNK     0      -3.296   0.118  -0.794  0.00  0.00    +0.000 C 
ATOM      6  C12 UNK     0      -1.158  -0.536  -2.015  0.00  0.00    +0.000 C 
ATOM      7  C13 UNK     0      -2.674  -0.765  -1.921  0.00  0.00    +0.000 C 
ATOM      8  C14 UNK     0      -4.872   0.421  -0.894  0.00  0.00    +0.000 C 
ATOM      9  C15 UNK     0       1.874  -0.157   0.536  0.00  0.00    +0.000 C 
ATOM     10  C16 UNK     0       3.416  -0.164   0.651  0.00  0.00    +0.000 C 
ATOM     11  C17 UNK     0      -3.204   1.005   1.542  0.00  0.00    +0.000 C 
ATOM     12  C18 UNK     0      -0.312  -0.191   1.828  0.00  0.00    +0.000 C 
ATOM     13  C19 UNK     0       1.973  -1.058  -1.842  0.00  0.00    +0.000 C 
ATOM     14  C20 UNK     0       4.102  -1.091  -0.423  0.00  0.00    +0.000 C 
ATOM     15  C21 UNK     0      -0.314  -2.285  -0.376  0.00  0.00    +0.000 C 
ATOM     16  C22 UNK     0       3.485  -0.810  -1.815  0.00  0.00    +0.000 C 
ATOM     17  C23 UNK     0      -5.585   0.522   0.520  0.00  0.00    +0.000 C 
ATOM     18  C24 UNK     0      -4.739   1.125   1.679  0.00  0.00    +0.000 C 
ATOM     19  C25 UNK     0      -3.122  -1.511   1.254  0.00  0.00    +0.000 C 
ATOM     20  C26 UNK     0       1.175  -0.058   1.692  0.00  0.00    +0.000 C 
ATOM     21  C27 UNK     0       1.183   1.285  -1.380  0.00  0.00    +0.000 C 
ATOM     22  C28 UNK     0       4.093   1.247   0.696  0.00  0.00    +0.000 C 
ATOM     23  C29 UNK     0       5.641  -0.814  -0.507  0.00  0.00    +0.000 C 
ATOM     24  C31 UNK     0       5.592   1.125   1.142  0.00  0.00    +0.000 C 
ATOM     25  C32 UNK     0      -5.627  -0.616  -1.779  0.00  0.00    +0.000 C 
ATOM     26  C33 UNK     0       6.213  -0.256   0.799  0.00  0.00    +0.000 C 
ATOM     27  C35 UNK     0       3.346   2.238   1.613  0.00  0.00    +0.000 C 
ATOM     28  C36 UNK     0       6.443   2.253   0.528  0.00  0.00    +0.000 C 
ENDROOT
BRANCH  17  29
ATOM     29  O2  UNK     0      -6.206  -0.670   0.951  0.00  0.00    +0.000 OA
ATOM     30  H78 UNK     0      -5.647  -1.442   0.702  0.00  0.00    +0.000 HD
ENDBRANCH  17  29
BRANCH   7  31
ATOM     31  O1  UNK     0      -2.932  -2.139  -1.760  0.00  0.00    +0.000 OA
ATOM     32  H74 UNK     0      -3.584  -2.414  -2.464  0.00  0.00    +0.000 HD
ENDBRANCH   7  31
BRANCH  18  33
ATOM     33  O3  UNK     0      -5.059   2.485   1.844  0.00  0.00    +0.000 OA
ATOM     34  H79 UNK     0      -5.934   2.527   2.312  0.00  0.00    +0.000 HD
ENDBRANCH  18  33
BRANCH  14  35
ATOM     35  C34 UNK     0       3.907  -2.569  -0.083  0.00  0.00    +0.000 C 
ATOM     36  O6  UNK     0       3.369  -2.924   1.008  0.00  0.00    +0.000 OA
BRANCH  35  37
ATOM     37  O5  UNK     0       4.366  -3.550  -0.964  0.00  0.00    +0.000 OA
ATOM     38  H84 UNK     0       4.298  -4.532  -0.720  0.00  0.00    +0.000 HD
ENDBRANCH  35  37
ENDBRANCH  14  35
BRANCH   8  39
ATOM     39  C30 UNK     0      -5.043   1.808  -1.608  0.00  0.00    +0.000 C 
BRANCH  39  40
ATOM     40  O4  UNK     0      -6.395   2.097  -1.872  0.00  0.00    +0.000 OA
ATOM     41  H83 UNK     0      -6.401   2.987  -2.318  0.00  0.00    +0.000 HD
ENDBRANCH  39  40
ENDBRANCH   8  39
TORSDOF 7
