REMARK  Name = C:\Users\Maximilian\Desktop\Conformers\converted_pdb\conformers_pdb\Madecassic Acid_conf_31.pdb
REMARK  13 active torsions:
REMARK  status: ('A' for Active; 'I' for Inactive)
REMARK    1  A    between atoms: C7_1  and  C21_15
REMARK    2  A    between atoms: C9_3  and  C25_19
REMARK    3  A    between atoms: C10_4  and  C27_21
REMARK    4  A    between atoms: C13_7  and  O1_34
REMARK    5  A    between atoms: C14_8  and  C32_25
REMARK    6  A    between atoms: C14_8  and  C30_29
REMARK    7  A    between atoms: C20_14  and  C34_38
REMARK    8  A    between atoms: C23_17  and  O2_32
REMARK    9  A    between atoms: C24_18  and  O3_36
REMARK   10  A    between atoms: C28_22  and  C35_27
REMARK   11  A    between atoms: C31_24  and  C36_28
REMARK   12  A    between atoms: C30_29  and  O4_30
REMARK   13  A    between atoms: C34_38  and  O5_40
REMARK                            x       y       z     vdW  Elec       q    Type
REMARK                         _______ _______ _______ _____ _____    ______ ____
ROOT
ATOM      1  C7  UNK     0       0.211  -0.381  -0.886  0.00  0.00    +0.000 C 
ATOM      2  C8  UNK     0       1.143   0.524   0.012  0.00  0.00    +0.000 C 
ATOM      3  C9  UNK     0       2.682   0.669  -0.412  0.00  0.00    +0.000 C 
ATOM      4  C10 UNK     0      -1.180  -0.660  -0.097  0.00  0.00    +0.000 C 
ATOM      5  C11 UNK     0       3.243  -0.784  -0.674  0.00  0.00    +0.000 C 
ATOM      6  C12 UNK     0       0.938  -1.729  -1.204  0.00  0.00    +0.000 C 
ATOM      7  C13 UNK     0       2.391  -1.601  -1.695  0.00  0.00    +0.000 C 
ATOM      8  C14 UNK     0       4.821  -0.922  -0.807  0.00  0.00    +0.000 C 
ATOM      9  C15 UNK     0      -1.809   0.672   0.365  0.00  0.00    +0.000 C 
ATOM     10  C16 UNK     0      -3.323   0.816   0.634  0.00  0.00    +0.000 C 
ATOM     11  C17 UNK     0       3.460   1.262   0.815  0.00  0.00    +0.000 C 
ATOM     12  C18 UNK     0       0.444   1.857   0.383  0.00  0.00    +0.000 C 
ATOM     13  C19 UNK     0      -2.182  -1.442  -1.016  0.00  0.00    +0.000 C 
ATOM     14  C20 UNK     0      -4.203  -0.005  -0.381  0.00  0.00    +0.000 C 
ATOM     15  C21 UNK     0      -0.092   0.343  -2.240  0.00  0.00    +0.000 C 
ATOM     16  C22 UNK     0      -3.632  -1.439  -0.521  0.00  0.00    +0.000 C 
ATOM     17  C23 UNK     0       5.474  -0.256   0.453  0.00  0.00    +0.000 C 
ATOM     18  C24 UNK     0       4.999   1.190   0.708  0.00  0.00    +0.000 C 
ATOM     19  C25 UNK     0       2.896   1.644  -1.624  0.00  0.00    +0.000 C 
ATOM     20  C26 UNK     0      -1.032   1.746   0.644  0.00  0.00    +0.000 C 
ATOM     21  C27 UNK     0      -0.987  -1.523   1.194  0.00  0.00    +0.000 C 
ATOM     22  C28 UNK     0      -3.769   0.542   2.110  0.00  0.00    +0.000 C 
ATOM     23  C29 UNK     0      -5.683  -0.123   0.119  0.00  0.00    +0.000 C 
ATOM     24  C31 UNK     0      -5.238   1.039   2.340  0.00  0.00    +0.000 C 
ATOM     25  C32 UNK     0       5.381  -0.299  -2.114  0.00  0.00    +0.000 C 
ATOM     26  C33 UNK     0      -6.084   1.031   1.041  0.00  0.00    +0.000 C 
ATOM     27  C35 UNK     0      -2.828   1.176   3.153  0.00  0.00    +0.000 C 
ATOM     28  C36 UNK     0      -5.937   0.215   3.437  0.00  0.00    +0.000 C 
ENDROOT
BRANCH  17  29
ATOM     29  O2  UNK     0       6.882  -0.322   0.409  0.00  0.00    +0.000 OA
ATOM     30  H78 UNK     0       7.207   0.377  -0.216  0.00  0.00    +0.000 HD
ENDBRANCH  17  29
BRANCH   7  31
ATOM     31  O1  UNK     0       2.441  -1.072  -2.992  0.00  0.00    +0.000 OA
ATOM     32  H74 UNK     0       2.093  -1.770  -3.607  0.00  0.00    +0.000 HD
ENDBRANCH   7  31
BRANCH  18  33
ATOM     33  O3  UNK     0       5.564   1.639   1.914  0.00  0.00    +0.000 OA
ATOM     34  H79 UNK     0       5.462   2.627   1.931  0.00  0.00    +0.000 HD
ENDBRANCH  18  33
BRANCH  14  35
ATOM     35  C34 UNK     0      -4.223   0.662  -1.756  0.00  0.00    +0.000 C 
ATOM     36  O6  UNK     0      -3.714   1.802  -1.942  0.00  0.00    +0.000 OA
BRANCH  35  37
ATOM     37  O5  UNK     0      -4.825   0.008  -2.830  0.00  0.00    +0.000 OA
ATOM     38  H84 UNK     0      -4.851   0.433  -3.749  0.00  0.00    +0.000 HD
ENDBRANCH  35  37
ENDBRANCH  14  35
BRANCH   8  39
ATOM     39  C30 UNK     0       5.251  -2.427  -0.826  0.00  0.00    +0.000 C 
BRANCH  39  40
ATOM     40  O4  UNK     0       4.660  -3.161   0.217  0.00  0.00    +0.000 OA
ATOM     41  H83 UNK     0       5.311  -3.182   0.966  0.00  0.00    +0.000 HD
ENDBRANCH  39  40
ENDBRANCH   8  39
TORSDOF 7
