REMARK  Name = C:\Users\Maximilian\Desktop\Conformers\converted_pdb\conformers_pdb\Madecassic Acid_conf_35.pdb
REMARK  13 active torsions:
REMARK  status: ('A' for Active; 'I' for Inactive)
REMARK    1  A    between atoms: C7_1  and  C21_15
REMARK    2  A    between atoms: C9_3  and  C25_19
REMARK    3  A    between atoms: C10_4  and  C27_21
REMARK    4  A    between atoms: C13_7  and  O1_34
REMARK    5  A    between atoms: C14_8  and  C32_25
REMARK    6  A    between atoms: C14_8  and  C30_29
REMARK    7  A    between atoms: C20_14  and  C34_38
REMARK    8  A    between atoms: C23_17  and  O2_32
REMARK    9  A    between atoms: C24_18  and  O3_36
REMARK   10  A    between atoms: C28_22  and  C35_27
REMARK   11  A    between atoms: C31_24  and  C36_28
REMARK   12  A    between atoms: C30_29  and  O4_30
REMARK   13  A    between atoms: C34_38  and  O5_40
REMARK                            x       y       z     vdW  Elec       q    Type
REMARK                         _______ _______ _______ _____ _____    ______ ____
ROOT
ATOM      1  C7  UNK     0      -0.434  -0.758   0.054  0.00  0.00    +0.000 C 
ATOM      2  C8  UNK     0      -1.128   0.584  -0.385  0.00  0.00    +0.000 C 
ATOM      3  C9  UNK     0      -2.623   0.823   0.095  0.00  0.00    +0.000 C 
ATOM      4  C10 UNK     0       0.982  -0.853  -0.718  0.00  0.00    +0.000 C 
ATOM      5  C11 UNK     0      -3.469  -0.441  -0.343  0.00  0.00    +0.000 C 
ATOM      6  C12 UNK     0      -1.370  -1.950  -0.319  0.00  0.00    +0.000 C 
ATOM      7  C13 UNK     0      -2.851  -1.800   0.112  0.00  0.00    +0.000 C 
ATOM      8  C14 UNK     0      -5.048  -0.297  -0.218  0.00  0.00    +0.000 C 
ATOM      9  C15 UNK     0       1.875   0.290  -0.228  0.00  0.00    +0.000 C 
ATOM     10  C16 UNK     0       3.283  -0.022   0.356  0.00  0.00    +0.000 C 
ATOM     11  C17 UNK     0      -3.185   2.057  -0.688  0.00  0.00    +0.000 C 
ATOM     12  C18 UNK     0      -0.182   1.818  -0.268  0.00  0.00    +0.000 C 
ATOM     13  C19 UNK     0       1.671  -2.229  -0.459  0.00  0.00    +0.000 C 
ATOM     14  C20 UNK     0       4.045  -1.201  -0.390  0.00  0.00    +0.000 C 
ATOM     15  C21 UNK     0      -0.190  -0.795   1.603  0.00  0.00    +0.000 C 
ATOM     16  C22 UNK     0       3.101  -2.296  -0.988  0.00  0.00    +0.000 C 
ATOM     17  C23 UNK     0      -5.478   0.992  -1.000  0.00  0.00    +0.000 C 
ATOM     18  C24 UNK     0      -4.706   2.257  -0.572  0.00  0.00    +0.000 C 
ATOM     19  C25 UNK     0      -2.695   1.132   1.627  0.00  0.00    +0.000 C 
ATOM     20  C26 UNK     0       1.292   1.515  -0.070  0.00  0.00    +0.000 C 
ATOM     21  C27 UNK     0       0.860  -0.676  -2.272  0.00  0.00    +0.000 C 
ATOM     22  C28 UNK     0       4.190   1.264   0.550  0.00  0.00    +0.000 C 
ATOM     23  C29 UNK     0       4.866  -0.583  -1.553  0.00  0.00    +0.000 C 
ATOM     24  C31 UNK     0       5.707   1.016   0.301  0.00  0.00    +0.000 C 
ATOM     25  C32 UNK     0      -5.569  -0.224   1.246  0.00  0.00    +0.000 C 
ATOM     26  C33 UNK     0       5.950   0.413  -1.100  0.00  0.00    +0.000 C 
ATOM     27  C35 UNK     0       3.965   1.865   1.958  0.00  0.00    +0.000 C 
ATOM     28  C36 UNK     0       6.549   2.297   0.450  0.00  0.00    +0.000 C 
ENDROOT
BRANCH  17  29
ATOM     29  O2  UNK     0      -6.859   1.221  -0.836  0.00  0.00    +0.000 OA
ATOM     30  H78 UNK     0      -7.215   1.542  -1.707  0.00  0.00    +0.000 HD
ENDBRANCH  17  29
BRANCH   7  31
ATOM     31  O1  UNK     0      -3.006  -2.014   1.489  0.00  0.00    +0.000 OA
ATOM     32  H74 UNK     0      -2.869  -2.984   1.651  0.00  0.00    +0.000 HD
ENDBRANCH   7  31
BRANCH  18  33
ATOM     33  O3  UNK     0      -5.068   3.330  -1.407  0.00  0.00    +0.000 OA
ATOM     34  H79 UNK     0      -5.922   3.699  -1.058  0.00  0.00    +0.000 HD
ENDBRANCH  18  33
BRANCH  14  35
ATOM     35  C34 UNK     0       4.977  -1.938   0.574  0.00  0.00    +0.000 C 
ATOM     36  O6  UNK     0       4.620  -2.167   1.761  0.00  0.00    +0.000 OA
BRANCH  35  37
ATOM     37  O5  UNK     0       6.184  -2.467   0.119  0.00  0.00    +0.000 OA
ATOM     38  H84 UNK     0       6.789  -2.991   0.739  0.00  0.00    +0.000 HD
ENDBRANCH  35  37
ENDBRANCH  14  35
BRANCH   8  39
ATOM     39  C30 UNK     0      -5.758  -1.506  -0.917  0.00  0.00    +0.000 C 
BRANCH  39  40
ATOM     40  O4  UNK     0      -5.754  -2.651  -0.106  0.00  0.00    +0.000 OA
ATOM     41  H83 UNK     0      -6.109  -3.391  -0.664  0.00  0.00    +0.000 HD
ENDBRANCH  39  40
ENDBRANCH   8  39
TORSDOF 7
