REMARK  Name = C:\Users\Maximilian\Desktop\Conformers\converted_pdb\conformers_pdb\Madecassic Acid_conf_34.pdb
REMARK  13 active torsions:
REMARK  status: ('A' for Active; 'I' for Inactive)
REMARK    1  A    between atoms: C7_1  and  C21_15
REMARK    2  A    between atoms: C9_3  and  C25_19
REMARK    3  A    between atoms: C10_4  and  C27_21
REMARK    4  A    between atoms: C13_7  and  O1_34
REMARK    5  A    between atoms: C14_8  and  C32_25
REMARK    6  A    between atoms: C14_8  and  C30_29
REMARK    7  A    between atoms: C20_14  and  C34_38
REMARK    8  A    between atoms: C23_17  and  O2_32
REMARK    9  A    between atoms: C24_18  and  O3_36
REMARK   10  A    between atoms: C28_22  and  C35_27
REMARK   11  A    between atoms: C31_24  and  C36_28
REMARK   12  A    between atoms: C30_29  and  O4_30
REMARK   13  A    between atoms: C34_38  and  O5_40
REMARK                            x       y       z     vdW  Elec       q    Type
REMARK                         _______ _______ _______ _____ _____    ______ ____
ROOT
ATOM      1  C7  UNK     0       0.369  -0.841   0.038  0.00  0.00    +0.000 C 
ATOM      2  C8  UNK     0       1.120   0.517  -0.255  0.00  0.00    +0.000 C 
ATOM      3  C9  UNK     0       2.687   0.442  -0.559  0.00  0.00    +0.000 C 
ATOM      4  C10 UNK     0      -1.138  -0.510   0.548  0.00  0.00    +0.000 C 
ATOM      5  C11 UNK     0       3.370  -0.370   0.615  0.00  0.00    +0.000 C 
ATOM      6  C12 UNK     0       1.188  -1.629   1.120  0.00  0.00    +0.000 C 
ATOM      7  C13 UNK     0       2.706  -1.761   0.863  0.00  0.00    +0.000 C 
ATOM      8  C14 UNK     0       4.963  -0.319   0.687  0.00  0.00    +0.000 C 
ATOM      9  C15 UNK     0      -1.857   0.399  -0.467  0.00  0.00    +0.000 C 
ATOM     10  C16 UNK     0      -3.394   0.354  -0.660  0.00  0.00    +0.000 C 
ATOM     11  C17 UNK     0       3.246   1.904  -0.510  0.00  0.00    +0.000 C 
ATOM     12  C18 UNK     0       0.336   1.445  -1.221  0.00  0.00    +0.000 C 
ATOM     13  C19 UNK     0      -1.997  -1.808   0.771  0.00  0.00    +0.000 C 
ATOM     14  C20 UNK     0      -3.989  -1.119  -0.734  0.00  0.00    +0.000 C 
ATOM     15  C21 UNK     0       0.286  -1.724  -1.241  0.00  0.00    +0.000 C 
ATOM     16  C22 UNK     0      -2.899  -2.182  -0.418  0.00  0.00    +0.000 C 
ATOM     17  C23 UNK     0       5.398   1.192   0.675  0.00  0.00    +0.000 C 
ATOM     18  C24 UNK     0       4.783   2.005  -0.488  0.00  0.00    +0.000 C 
ATOM     19  C25 UNK     0       2.986  -0.151  -1.979  0.00  0.00    +0.000 C 
ATOM     20  C26 UNK     0      -1.160   1.302  -1.196  0.00  0.00    +0.000 C 
ATOM     21  C27 UNK     0      -1.145   0.269   1.905  0.00  0.00    +0.000 C 
ATOM     22  C28 UNK     0      -4.174   1.282   0.336  0.00  0.00    +0.000 C 
ATOM     23  C29 UNK     0      -5.166  -1.307   0.264  0.00  0.00    +0.000 C 
ATOM     24  C31 UNK     0      -5.700   1.216   0.018  0.00  0.00    +0.000 C 
ATOM     25  C32 UNK     0       5.656  -1.104  -0.459  0.00  0.00    +0.000 C 
ATOM     26  C33 UNK     0      -6.255  -0.232   0.122  0.00  0.00    +0.000 C 
ATOM     27  C35 UNK     0      -3.644   2.732   0.293  0.00  0.00    +0.000 C 
ATOM     28  C36 UNK     0      -6.544   2.153   0.904  0.00  0.00    +0.000 C 
ENDROOT
BRANCH  17  29
ATOM     29  O2  UNK     0       6.799   1.348   0.685  0.00  0.00    +0.000 OA
ATOM     30  H78 UNK     0       7.143   1.140  -0.220  0.00  0.00    +0.000 HD
ENDBRANCH  17  29
BRANCH   7  31
ATOM     31  O1  UNK     0       2.973  -2.678  -0.163  0.00  0.00    +0.000 OA
ATOM     32  H74 UNK     0       2.753  -3.581   0.185  0.00  0.00    +0.000 HD
ENDBRANCH   7  31
BRANCH  18  33
ATOM     33  O3  UNK     0       5.172   3.355  -0.399  0.00  0.00    +0.000 OA
ATOM     34  H79 UNK     0       4.836   3.713   0.465  0.00  0.00    +0.000 HD
ENDBRANCH  18  33
BRANCH  14  35
ATOM     35  C34 UNK     0      -4.548  -1.413  -2.131  0.00  0.00    +0.000 C 
ATOM     36  O6  UNK     0      -4.518  -2.585  -2.599  0.00  0.00    +0.000 OA
BRANCH  35  37
ATOM     37  O5  UNK     0      -5.197  -0.420  -2.863  0.00  0.00    +0.000 OA
ATOM     38  H84 UNK     0      -5.595  -0.619  -3.773  0.00  0.00    +0.000 HD
ENDBRANCH  35  37
ENDBRANCH  14  35
BRANCH   8  39
ATOM     39  C30 UNK     0       5.436  -0.956   2.038  0.00  0.00    +0.000 C 
BRANCH  39  40
ATOM     40  O4  UNK     0       6.799  -0.713   2.291  0.00  0.00    +0.000 OA
ATOM     41  H83 UNK     0       7.300  -1.546   2.074  0.00  0.00    +0.000 HD
ENDBRANCH  39  40
ENDBRANCH   8  39
TORSDOF 7
