REMARK  Name = C:\Users\Maximilian\Desktop\Conformers\converted_pdb\conformers_pdb\Madecassic Acid_conf_28.pdb
REMARK  13 active torsions:
REMARK  status: ('A' for Active; 'I' for Inactive)
REMARK    1  A    between atoms: C7_1  and  C21_15
REMARK    2  A    between atoms: C9_3  and  C25_19
REMARK    3  A    between atoms: C10_4  and  C27_21
REMARK    4  A    between atoms: C13_7  and  O1_34
REMARK    5  A    between atoms: C14_8  and  C32_25
REMARK    6  A    between atoms: C14_8  and  C30_29
REMARK    7  A    between atoms: C20_14  and  C34_38
REMARK    8  A    between atoms: C23_17  and  O2_32
REMARK    9  A    between atoms: C24_18  and  O3_36
REMARK   10  A    between atoms: C28_22  and  C35_27
REMARK   11  A    between atoms: C31_24  and  C36_28
REMARK   12  A    between atoms: C30_29  and  O4_30
REMARK   13  A    between atoms: C34_38  and  O5_40
REMARK                            x       y       z     vdW  Elec       q    Type
REMARK                         _______ _______ _______ _____ _____    ______ ____
ROOT
ATOM      1  C7  UNK     0       0.264   0.571  -0.773  0.00  0.00    +0.000 C 
ATOM      2  C8  UNK     0       1.115   0.402   0.550  0.00  0.00    +0.000 C 
ATOM      3  C9  UNK     0       2.709   0.606   0.457  0.00  0.00    +0.000 C 
ATOM      4  C10 UNK     0      -1.236  -0.024  -0.527  0.00  0.00    +0.000 C 
ATOM      5  C11 UNK     0       3.233  -0.248  -0.765  0.00  0.00    +0.000 C 
ATOM      6  C12 UNK     0       0.975  -0.195  -1.948  0.00  0.00    +0.000 C 
ATOM      7  C13 UNK     0       2.484   0.063  -2.103  0.00  0.00    +0.000 C 
ATOM      8  C14 UNK     0       4.804  -0.454  -0.874  0.00  0.00    +0.000 C 
ATOM      9  C15 UNK     0      -1.820   0.399   0.843  0.00  0.00    +0.000 C 
ATOM     10  C16 UNK     0      -3.336   0.284   1.158  0.00  0.00    +0.000 C 
ATOM     11  C17 UNK     0       3.358   0.009   1.760  0.00  0.00    +0.000 C 
ATOM     12  C18 UNK     0       0.433   1.162   1.710  0.00  0.00    +0.000 C 
ATOM     13  C19 UNK     0      -2.228   0.471  -1.631  0.00  0.00    +0.000 C 
ATOM     14  C20 UNK     0      -4.251   0.704  -0.052  0.00  0.00    +0.000 C 
ATOM     15  C21 UNK     0       0.180   2.083  -1.169  0.00  0.00    +0.000 C 
ATOM     16  C22 UNK     0      -3.695   0.096  -1.371  0.00  0.00    +0.000 C 
ATOM     17  C23 UNK     0       5.328  -1.009   0.492  0.00  0.00    +0.000 C 
ATOM     18  C24 UNK     0       4.892  -0.169   1.711  0.00  0.00    +0.000 C 
ATOM     19  C25 UNK     0       3.120   2.118   0.381  0.00  0.00    +0.000 C 
ATOM     20  C26 UNK     0      -1.022   0.835   1.847  0.00  0.00    +0.000 C 
ATOM     21  C27 UNK     0      -1.234  -1.589  -0.572  0.00  0.00    +0.000 C 
ATOM     22  C28 UNK     0      -3.807  -1.071   1.779  0.00  0.00    +0.000 C 
ATOM     23  C29 UNK     0      -5.718   0.177   0.135  0.00  0.00    +0.000 C 
ATOM     24  C31 UNK     0      -5.244  -0.919   2.391  0.00  0.00    +0.000 C 
ATOM     25  C32 UNK     0       5.556   0.850  -1.263  0.00  0.00    +0.000 C 
ATOM     26  C33 UNK     0      -6.124   0.095   1.608  0.00  0.00    +0.000 C 
ATOM     27  C35 UNK     0      -2.825  -1.623   2.836  0.00  0.00    +0.000 C 
ATOM     28  C36 UNK     0      -5.954  -2.284   2.513  0.00  0.00    +0.000 C 
ENDROOT
BRANCH  17  29
ATOM     29  O2  UNK     0       6.733  -1.101   0.474  0.00  0.00    +0.000 OA
ATOM     30  H78 UNK     0       6.984  -1.977   0.874  0.00  0.00    +0.000 HD
ENDBRANCH  17  29
BRANCH   7  31
ATOM     31  O1  UNK     0       2.727   1.358  -2.583  0.00  0.00    +0.000 OA
ATOM     32  H74 UNK     0       2.485   1.362  -3.547  0.00  0.00    +0.000 HD
ENDBRANCH   7  31
BRANCH  18  33
ATOM     33  O3  UNK     0       5.299  -0.812   2.895  0.00  0.00    +0.000 OA
ATOM     34  H79 UNK     0       6.269  -0.635   3.009  0.00  0.00    +0.000 HD
ENDBRANCH  18  33
BRANCH  14  35
ATOM     35  C34 UNK     0      -4.329   2.232  -0.144  0.00  0.00    +0.000 C 
ATOM     36  O6  UNK     0      -4.437   2.927   0.909  0.00  0.00    +0.000 OA
BRANCH  35  37
ATOM     37  O5  UNK     0      -4.432   2.868  -1.384  0.00  0.00    +0.000 OA
ATOM     38  H84 UNK     0      -4.552   3.872  -1.446  0.00  0.00    +0.000 HD
ENDBRANCH  35  37
ENDBRANCH  14  35
BRANCH   8  39
ATOM     39  C30 UNK     0       5.164  -1.507  -1.981  0.00  0.00    +0.000 C 
BRANCH  39  40
ATOM     40  O4  UNK     0       4.376  -2.667  -1.895  0.00  0.00    +0.000 OA
ATOM     41  H83 UNK     0       4.883  -3.326  -1.352  0.00  0.00    +0.000 HD
ENDBRANCH  39  40
ENDBRANCH   8  39
TORSDOF 7
