REMARK  Name = C:\Users\Maximilian\Desktop\Conformers\converted_pdb\conformers_pdb\Madecassic Acid_conf_11.pdb
REMARK  13 active torsions:
REMARK  status: ('A' for Active; 'I' for Inactive)
REMARK    1  A    between atoms: C7_1  and  C21_15
REMARK    2  A    between atoms: C9_3  and  C25_19
REMARK    3  A    between atoms: C10_4  and  C27_21
REMARK    4  A    between atoms: C13_7  and  O1_34
REMARK    5  A    between atoms: C14_8  and  C32_25
REMARK    6  A    between atoms: C14_8  and  C30_29
REMARK    7  A    between atoms: C20_14  and  C34_38
REMARK    8  A    between atoms: C23_17  and  O2_32
REMARK    9  A    between atoms: C24_18  and  O3_36
REMARK   10  A    between atoms: C28_22  and  C35_27
REMARK   11  A    between atoms: C31_24  and  C36_28
REMARK   12  A    between atoms: C30_29  and  O4_30
REMARK   13  A    between atoms: C34_38  and  O5_40
REMARK                            x       y       z     vdW  Elec       q    Type
REMARK                         _______ _______ _______ _____ _____    ______ ____
ROOT
ATOM      1  C7  UNK     0      -0.317   0.458  -0.685  0.00  0.00    +0.000 C 
ATOM      2  C8  UNK     0      -1.086  -0.588   0.216  0.00  0.00    +0.000 C 
ATOM      3  C9  UNK     0      -2.606  -0.910  -0.160  0.00  0.00    +0.000 C 
ATOM      4  C10 UNK     0       1.109   0.809   0.015  0.00  0.00    +0.000 C 
ATOM      5  C11 UNK     0      -3.377   0.465  -0.270  0.00  0.00    +0.000 C 
ATOM      6  C12 UNK     0      -1.220   1.733  -0.829  0.00  0.00    +0.000 C 
ATOM      7  C13 UNK     0      -2.688   1.480  -1.235  0.00  0.00    +0.000 C 
ATOM      8  C14 UNK     0      -4.965   0.384  -0.337  0.00  0.00    +0.000 C 
ATOM      9  C15 UNK     0       1.894  -0.484   0.303  0.00  0.00    +0.000 C 
ATOM     10  C16 UNK     0       3.440  -0.508   0.282  0.00  0.00    +0.000 C 
ATOM     11  C17 UNK     0      -3.234  -1.702   1.035  0.00  0.00    +0.000 C 
ATOM     12  C18 UNK     0      -0.237  -1.845   0.546  0.00  0.00    +0.000 C 
ATOM     13  C19 UNK     0       2.019   1.751  -0.857  0.00  0.00    +0.000 C 
ATOM     14  C20 UNK     0       4.035   0.107  -1.058  0.00  0.00    +0.000 C 
ATOM     15  C21 UNK     0      -0.061  -0.109  -2.109  0.00  0.00    +0.000 C 
ATOM     16  C22 UNK     0       2.999   1.018  -1.791  0.00  0.00    +0.000 C 
ATOM     17  C23 UNK     0      -5.461  -0.480   0.874  0.00  0.00    +0.000 C 
ATOM     18  C24 UNK     0      -4.766  -1.848   0.975  0.00  0.00    +0.000 C 
ATOM     19  C25 UNK     0      -2.724  -1.799  -1.447  0.00  0.00    +0.000 C 
ATOM     20  C26 UNK     0       1.249  -1.629   0.620  0.00  0.00    +0.000 C 
ATOM     21  C27 UNK     0       0.912   1.543   1.384  0.00  0.00    +0.000 C 
ATOM     22  C28 UNK     0       4.086   0.087   1.579  0.00  0.00    +0.000 C 
ATOM     23  C29 UNK     0       5.304   0.955  -0.763  0.00  0.00    +0.000 C 
ATOM     24  C31 UNK     0       5.642  -0.079   1.561  0.00  0.00    +0.000 C 
ATOM     25  C32 UNK     0      -5.506  -0.191  -1.674  0.00  0.00    +0.000 C 
ATOM     26  C33 UNK     0       6.269   0.223   0.174  0.00  0.00    +0.000 C 
ATOM     27  C35 UNK     0       3.491  -0.565   2.849  0.00  0.00    +0.000 C 
ATOM     28  C36 UNK     0       6.318   0.793   2.638  0.00  0.00    +0.000 C 
ENDROOT
BRANCH  17  29
ATOM     29  O2  UNK     0      -6.851  -0.698   0.792  0.00  0.00    +0.000 OA
ATOM     30  H78 UNK     0      -7.225  -0.581   1.705  0.00  0.00    +0.000 HD
ENDBRANCH  17  29
BRANCH   7  31
ATOM     31  O1  UNK     0      -2.793   1.099  -2.580  0.00  0.00    +0.000 OA
ATOM     32  H74 UNK     0      -2.556   1.890  -3.127  0.00  0.00    +0.000 HD
ENDBRANCH   7  31
BRANCH  18  33
ATOM     33  O3  UNK     0      -5.208  -2.491   2.144  0.00  0.00    +0.000 OA
ATOM     34  H79 UNK     0      -4.993  -3.456   2.043  0.00  0.00    +0.000 HD
ENDBRANCH  18  33
BRANCH  14  35
ATOM     35  C34 UNK     0       4.459  -1.000  -2.035  0.00  0.00    +0.000 C 
ATOM     36  O6  UNK     0       4.544  -0.751  -3.270  0.00  0.00    +0.000 OA
BRANCH  35  37
ATOM     37  O5  UNK     0       4.853  -2.258  -1.581  0.00  0.00    +0.000 OA
ATOM     38  H84 UNK     0       5.174  -2.967  -2.229  0.00  0.00    +0.000 HD
ENDBRANCH  35  37
ENDBRANCH  14  35
BRANCH   8  39
ATOM     39  C30 UNK     0      -5.561   1.823  -0.178  0.00  0.00    +0.000 C 
BRANCH  39  40
ATOM     40  O4  UNK     0      -6.960   1.797  -0.036  0.00  0.00    +0.000 OA
ATOM     41  H83 UNK     0      -7.202   2.495   0.629  0.00  0.00    +0.000 HD
ENDBRANCH  39  40
ENDBRANCH   8  39
TORSDOF 7
