REMARK  Name = C:\Users\Maximilian\Desktop\Conformers\converted_pdb\conformers_pdb\Madecassic Acid_conf_6.pdb
REMARK  13 active torsions:
REMARK  status: ('A' for Active; 'I' for Inactive)
REMARK    1  A    between atoms: C7_1  and  C21_15
REMARK    2  A    between atoms: C9_3  and  C25_19
REMARK    3  A    between atoms: C10_4  and  C27_21
REMARK    4  A    between atoms: C13_7  and  O1_34
REMARK    5  A    between atoms: C14_8  and  C32_25
REMARK    6  A    between atoms: C14_8  and  C30_29
REMARK    7  A    between atoms: C20_14  and  C34_38
REMARK    8  A    between atoms: C23_17  and  O2_32
REMARK    9  A    between atoms: C24_18  and  O3_36
REMARK   10  A    between atoms: C28_22  and  C35_27
REMARK   11  A    between atoms: C31_24  and  C36_28
REMARK   12  A    between atoms: C30_29  and  O4_30
REMARK   13  A    between atoms: C34_38  and  O5_40
REMARK                            x       y       z     vdW  Elec       q    Type
REMARK                         _______ _______ _______ _____ _____    ______ ____
ROOT
ATOM      1  C7  UNK     0       0.392  -0.648   1.082  0.00  0.00    +0.000 C 
ATOM      2  C8  UNK     0       1.138  -0.676  -0.302  0.00  0.00    +0.000 C 
ATOM      3  C9  UNK     0       2.720  -0.699  -0.259  0.00  0.00    +0.000 C 
ATOM      4  C10 UNK     0      -1.059   0.008   0.835  0.00  0.00    +0.000 C 
ATOM      5  C11 UNK     0       3.155   0.671   0.386  0.00  0.00    +0.000 C 
ATOM      6  C12 UNK     0       1.247   0.107   2.169  0.00  0.00    +0.000 C 
ATOM      7  C13 UNK     0       2.413   1.037   1.729  0.00  0.00    +0.000 C 
ATOM      8  C14 UNK     0       4.700   1.035   0.278  0.00  0.00    +0.000 C 
ATOM      9  C15 UNK     0      -1.765  -0.726  -0.343  0.00  0.00    +0.000 C 
ATOM     10  C16 UNK     0      -3.300  -0.683  -0.503  0.00  0.00    +0.000 C 
ATOM     11  C17 UNK     0       3.267  -0.752  -1.724  0.00  0.00    +0.000 C 
ATOM     12  C18 UNK     0       0.439  -1.659  -1.258  0.00  0.00    +0.000 C 
ATOM     13  C19 UNK     0      -1.946  -0.067   2.136  0.00  0.00    +0.000 C 
ATOM     14  C20 UNK     0      -4.085  -0.770   0.877  0.00  0.00    +0.000 C 
ATOM     15  C21 UNK     0       0.171  -2.112   1.627  0.00  0.00    +0.000 C 
ATOM     16  C22 UNK     0      -3.110  -1.062   2.050  0.00  0.00    +0.000 C 
ATOM     17  C23 UNK     0       5.130   0.907  -1.227  0.00  0.00    +0.000 C 
ATOM     18  C24 UNK     0       4.771  -0.450  -1.870  0.00  0.00    +0.000 C 
ATOM     19  C25 UNK     0       3.255  -1.934   0.509  0.00  0.00    +0.000 C 
ATOM     20  C26 UNK     0      -1.059  -1.448  -1.266  0.00  0.00    +0.000 C 
ATOM     21  C27 UNK     0      -0.952   1.515   0.443  0.00  0.00    +0.000 C 
ATOM     22  C28 UNK     0      -3.770   0.506  -1.419  0.00  0.00    +0.000 C 
ATOM     23  C29 UNK     0      -4.849   0.553   1.154  0.00  0.00    +0.000 C 
ATOM     24  C31 UNK     0      -5.326   0.619  -1.388  0.00  0.00    +0.000 C 
ATOM     25  C32 UNK     0       5.603   0.135   1.180  0.00  0.00    +0.000 C 
ATOM     26  C33 UNK     0      -5.852   0.903   0.044  0.00  0.00    +0.000 C 
ATOM     27  C35 UNK     0      -3.235   0.349  -2.859  0.00  0.00    +0.000 C 
ATOM     28  C36 UNK     0      -5.883   1.681  -2.354  0.00  0.00    +0.000 C 
ENDROOT
BRANCH  17  29
ATOM     29  O2  UNK     0       6.496   1.205  -1.407  0.00  0.00    +0.000 OA
ATOM     30  H78 UNK     0       7.029   0.430  -1.089  0.00  0.00    +0.000 HD
ENDBRANCH  17  29
BRANCH   7  31
ATOM     31  O1  UNK     0       3.311   1.130   2.804  0.00  0.00    +0.000 OA
ATOM     32  H74 UNK     0       2.881   1.689   3.504  0.00  0.00    +0.000 HD
ENDBRANCH   7  31
BRANCH  18  33
ATOM     33  O3  UNK     0       5.098  -0.397  -3.235  0.00  0.00    +0.000 OA
ATOM     34  H79 UNK     0       5.095  -1.332  -3.571  0.00  0.00    +0.000 HD
ENDBRANCH  18  33
BRANCH  14  35
ATOM     35  C34 UNK     0      -5.124  -1.897   0.890  0.00  0.00    +0.000 C 
ATOM     36  O6  UNK     0      -5.528  -2.438  -0.175  0.00  0.00    +0.000 OA
BRANCH  35  37
ATOM     37  O5  UNK     0      -5.697  -2.292   2.099  0.00  0.00    +0.000 OA
ATOM     38  H84 UNK     0      -6.405  -3.016   2.128  0.00  0.00    +0.000 HD
ENDBRANCH  35  37
ENDBRANCH  14  35
BRANCH   8  39
ATOM     39  C30 UNK     0       4.945   2.525   0.704  0.00  0.00    +0.000 C 
BRANCH  39  40
ATOM     40  O4  UNK     0       4.064   3.412   0.063  0.00  0.00    +0.000 OA
ATOM     41  H83 UNK     0       4.542   3.785  -0.723  0.00  0.00    +0.000 HD
ENDBRANCH  39  40
ENDBRANCH   8  39
TORSDOF 7
