REMARK  Name = C:\Users\Maximilian\Desktop\Conformers\converted_pdb\conformers_pdb\Madecassic Acid_conf_5.pdb
REMARK  13 active torsions:
REMARK  status: ('A' for Active; 'I' for Inactive)
REMARK    1  A    between atoms: C7_1  and  C21_15
REMARK    2  A    between atoms: C9_3  and  C25_19
REMARK    3  A    between atoms: C10_4  and  C27_21
REMARK    4  A    between atoms: C13_7  and  O1_34
REMARK    5  A    between atoms: C14_8  and  C32_25
REMARK    6  A    between atoms: C14_8  and  C30_29
REMARK    7  A    between atoms: C20_14  and  C34_38
REMARK    8  A    between atoms: C23_17  and  O2_32
REMARK    9  A    between atoms: C24_18  and  O3_36
REMARK   10  A    between atoms: C28_22  and  C35_27
REMARK   11  A    between atoms: C31_24  and  C36_28
REMARK   12  A    between atoms: C30_29  and  O4_30
REMARK   13  A    between atoms: C34_38  and  O5_40
REMARK                            x       y       z     vdW  Elec       q    Type
REMARK                         _______ _______ _______ _____ _____    ______ ____
ROOT
ATOM      1  C7  UNK     0      -0.395   0.599  -0.633  0.00  0.00    +0.000 C 
ATOM      2  C8  UNK     0      -1.089  -0.602   0.117  0.00  0.00    +0.000 C 
ATOM      3  C9  UNK     0      -2.643  -0.841  -0.155  0.00  0.00    +0.000 C 
ATOM      4  C10 UNK     0       1.093   0.807  -0.016  0.00  0.00    +0.000 C 
ATOM      5  C11 UNK     0      -3.392   0.524   0.104  0.00  0.00    +0.000 C 
ATOM      6  C12 UNK     0      -1.286   1.882  -0.454  0.00  0.00    +0.000 C 
ATOM      7  C13 UNK     0      -2.798   1.709  -0.716  0.00  0.00    +0.000 C 
ATOM      8  C14 UNK     0      -4.981   0.459   0.208  0.00  0.00    +0.000 C 
ATOM      9  C15 UNK     0       1.888  -0.515  -0.097  0.00  0.00    +0.000 C 
ATOM     10  C16 UNK     0       3.432  -0.551  -0.205  0.00  0.00    +0.000 C 
ATOM     11  C17 UNK     0      -3.155  -1.866   0.911  0.00  0.00    +0.000 C 
ATOM     12  C18 UNK     0      -0.240  -1.901   0.085  0.00  0.00    +0.000 C 
ATOM     13  C19 UNK     0       1.871   1.952  -0.762  0.00  0.00    +0.000 C 
ATOM     14  C20 UNK     0       4.046   0.610  -1.100  0.00  0.00    +0.000 C 
ATOM     15  C21 UNK     0      -0.268   0.308  -2.161  0.00  0.00    +0.000 C 
ATOM     16  C22 UNK     0       2.922   1.450  -1.760  0.00  0.00    +0.000 C 
ATOM     17  C23 UNK     0      -5.360  -0.644   1.258  0.00  0.00    +0.000 C 
ATOM     18  C24 UNK     0      -4.686  -2.001   0.988  0.00  0.00    +0.000 C 
ATOM     19  C25 UNK     0      -2.907  -1.441  -1.580  0.00  0.00    +0.000 C 
ATOM     20  C26 UNK     0       1.244  -1.706  -0.045  0.00  0.00    +0.000 C 
ATOM     21  C27 UNK     0       1.076   1.188   1.499  0.00  0.00    +0.000 C 
ATOM     22  C28 UNK     0       4.139  -0.695   1.198  0.00  0.00    +0.000 C 
ATOM     23  C29 UNK     0       4.952   1.542  -0.250  0.00  0.00    +0.000 C 
ATOM     24  C31 UNK     0       5.686  -0.584   1.028  0.00  0.00    +0.000 C 
ATOM     25  C32 UNK     0      -5.678   0.175  -1.151  0.00  0.00    +0.000 C 
ATOM     26  C33 UNK     0       6.102   0.789   0.435  0.00  0.00    +0.000 C 
ATOM     27  C35 UNK     0       3.736  -2.005   1.909  0.00  0.00    +0.000 C 
ATOM     28  C36 UNK     0       6.468  -0.829   2.333  0.00  0.00    +0.000 C 
ENDROOT
BRANCH  17  29
ATOM     29  O2  UNK     0      -6.756  -0.836   1.289  0.00  0.00    +0.000 OA
ATOM     30  H78 UNK     0      -6.992  -1.140   2.205  0.00  0.00    +0.000 HD
ENDBRANCH  17  29
BRANCH   7  31
ATOM     31  O1  UNK     0      -3.066   1.605  -2.089  0.00  0.00    +0.000 OA
ATOM     32  H74 UNK     0      -2.960   2.511  -2.479  0.00  0.00    +0.000 HD
ENDBRANCH   7  31
BRANCH  18  33
ATOM     33  O3  UNK     0      -5.011  -2.882   2.034  0.00  0.00    +0.000 OA
ATOM     34  H79 UNK     0      -4.825  -3.801   1.708  0.00  0.00    +0.000 HD
ENDBRANCH  18  33
BRANCH  14  35
ATOM     35  C34 UNK     0       4.912   0.065  -2.243  0.00  0.00    +0.000 C 
ATOM     36  O6  UNK     0       5.441  -1.078  -2.181  0.00  0.00    +0.000 OA
BRANCH  35  37
ATOM     37  O5  UNK     0       5.198   0.875  -3.341  0.00  0.00    +0.000 OA
ATOM     38  H84 UNK     0       5.795   0.547  -4.090  0.00  0.00    +0.000 HD
ENDBRANCH  35  37
ENDBRANCH  14  35
BRANCH   8  39
ATOM     39  C30 UNK     0      -5.516   1.838   0.728  0.00  0.00    +0.000 C 
BRANCH  39  40
ATOM     40  O4  UNK     0      -6.862   1.779   1.127  0.00  0.00    +0.000 OA
ATOM     41  H83 UNK     0      -7.415   2.033   0.343  0.00  0.00    +0.000 HD
ENDBRANCH  39  40
ENDBRANCH   8  39
TORSDOF 7
