REMARK  Name = C:\Users\Maximilian\Desktop\Conformers\converted_pdb\conformers_pdb\Madecassic Acid_conf_49.pdb
REMARK  13 active torsions:
REMARK  status: ('A' for Active; 'I' for Inactive)
REMARK    1  A    between atoms: C7_1  and  C21_15
REMARK    2  A    between atoms: C9_3  and  C25_19
REMARK    3  A    between atoms: C10_4  and  C27_21
REMARK    4  A    between atoms: C13_7  and  O1_34
REMARK    5  A    between atoms: C14_8  and  C32_25
REMARK    6  A    between atoms: C14_8  and  C30_29
REMARK    7  A    between atoms: C20_14  and  C34_38
REMARK    8  A    between atoms: C23_17  and  O2_32
REMARK    9  A    between atoms: C24_18  and  O3_36
REMARK   10  A    between atoms: C28_22  and  C35_27
REMARK   11  A    between atoms: C31_24  and  C36_28
REMARK   12  A    between atoms: C30_29  and  O4_30
REMARK   13  A    between atoms: C34_38  and  O5_40
REMARK                            x       y       z     vdW  Elec       q    Type
REMARK                         _______ _______ _______ _____ _____    ______ ____
ROOT
ATOM      1  C7  UNK     0      -0.419   0.150   0.968  0.00  0.00    +0.000 C 
ATOM      2  C8  UNK     0      -1.126   0.322  -0.435  0.00  0.00    +0.000 C 
ATOM      3  C9  UNK     0      -2.718   0.502  -0.473  0.00  0.00    +0.000 C 
ATOM      4  C10 UNK     0       1.101  -0.368   0.725  0.00  0.00    +0.000 C 
ATOM      5  C11 UNK     0      -3.371  -0.593   0.455  0.00  0.00    +0.000 C 
ATOM      6  C12 UNK     0      -1.243  -0.872   1.826  0.00  0.00    +0.000 C 
ATOM      7  C13 UNK     0      -2.759  -0.611   1.884  0.00  0.00    +0.000 C 
ATOM      8  C14 UNK     0      -4.963  -0.745   0.392  0.00  0.00    +0.000 C 
ATOM      9  C15 UNK     0       1.828   0.558  -0.284  0.00  0.00    +0.000 C 
ATOM     10  C16 UNK     0       3.365   0.727  -0.293  0.00  0.00    +0.000 C 
ATOM     11  C17 UNK     0      -3.189   0.210  -1.944  0.00  0.00    +0.000 C 
ATOM     12  C18 UNK     0      -0.365   1.332  -1.324  0.00  0.00    +0.000 C 
ATOM     13  C19 UNK     0       1.892  -0.448   2.086  0.00  0.00    +0.000 C 
ATOM     14  C20 UNK     0       4.034   0.600   1.139  0.00  0.00    +0.000 C 
ATOM     15  C21 UNK     0      -0.362   1.512   1.736  0.00  0.00    +0.000 C 
ATOM     16  C22 UNK     0       2.966   0.632   2.256  0.00  0.00    +0.000 C 
ATOM     17  C23 UNK     0      -5.570  -0.062  -0.889  0.00  0.00    +0.000 C 
ATOM     18  C24 UNK     0      -4.679  -0.175  -2.146  0.00  0.00    +0.000 C 
ATOM     19  C25 UNK     0      -3.164   1.959  -0.099  0.00  0.00    +0.000 C 
ATOM     20  C26 UNK     0       1.131   1.260  -1.211  0.00  0.00    +0.000 C 
ATOM     21  C27 UNK     0       1.171  -1.795   0.096  0.00  0.00    +0.000 C 
ATOM     22  C28 UNK     0       4.077  -0.146  -1.394  0.00  0.00    +0.000 C 
ATOM     23  C29 UNK     0       4.856  -0.722   1.245  0.00  0.00    +0.000 C 
ATOM     24  C31 UNK     0       5.616  -0.128  -1.151  0.00  0.00    +0.000 C 
ATOM     25  C32 UNK     0      -5.695  -0.160   1.640  0.00  0.00    +0.000 C 
ATOM     26  C33 UNK     0       5.953  -0.855   0.172  0.00  0.00    +0.000 C 
ATOM     27  C35 UNK     0       3.708   0.319  -2.816  0.00  0.00    +0.000 C 
ATOM     28  C36 UNK     0       6.451  -0.737  -2.291  0.00  0.00    +0.000 C 
ENDROOT
BRANCH  17  29
ATOM     29  O2  UNK     0      -5.879   1.292  -0.655  0.00  0.00    +0.000 OA
ATOM     30  H78 UNK     0      -6.591   1.553  -1.297  0.00  0.00    +0.000 HD
ENDBRANCH  17  29
BRANCH   7  31
ATOM     31  O1  UNK     0      -3.047   0.562   2.590  0.00  0.00    +0.000 OA
ATOM     32  H74 UNK     0      -2.804   0.396   3.538  0.00  0.00    +0.000 HD
ENDBRANCH   7  31
BRANCH  18  33
ATOM     33  O3  UNK     0      -4.771  -1.478  -2.662  0.00  0.00    +0.000 OA
ATOM     34  H79 UNK     0      -4.512  -1.430  -3.620  0.00  0.00    +0.000 HD
ENDBRANCH  18  33
BRANCH  14  35
ATOM     35  C34 UNK     0       4.941   1.806   1.407  0.00  0.00    +0.000 C 
ATOM     36  O6  UNK     0       6.134   1.662   1.797  0.00  0.00    +0.000 OA
BRANCH  35  37
ATOM     37  O5  UNK     0       4.431   3.097   1.279  0.00  0.00    +0.000 OA
ATOM     38  H84 UNK     0       5.020   3.907   1.443  0.00  0.00    +0.000 HD
ENDBRANCH  35  37
ENDBRANCH  14  35
BRANCH   8  39
ATOM     39  C30 UNK     0      -5.332  -2.266   0.339  0.00  0.00    +0.000 C 
BRANCH  39  40
ATOM     40  O4  UNK     0      -4.887  -2.941   1.487  0.00  0.00    +0.000 OA
ATOM     41  H83 UNK     0      -5.136  -3.894   1.370  0.00  0.00    +0.000 HD
ENDBRANCH  39  40
ENDBRANCH   8  39
TORSDOF 7
