REMARK  Name = C:\Users\Maximilian\Desktop\Conformers\converted_pdb\conformers_pdb\Madecassic Acid_conf_7.pdb
REMARK  13 active torsions:
REMARK  status: ('A' for Active; 'I' for Inactive)
REMARK    1  A    between atoms: C7_1  and  C21_15
REMARK    2  A    between atoms: C9_3  and  C25_19
REMARK    3  A    between atoms: C10_4  and  C27_21
REMARK    4  A    between atoms: C13_7  and  O1_34
REMARK    5  A    between atoms: C14_8  and  C32_25
REMARK    6  A    between atoms: C14_8  and  C30_29
REMARK    7  A    between atoms: C20_14  and  C34_38
REMARK    8  A    between atoms: C23_17  and  O2_32
REMARK    9  A    between atoms: C24_18  and  O3_36
REMARK   10  A    between atoms: C28_22  and  C35_27
REMARK   11  A    between atoms: C31_24  and  C36_28
REMARK   12  A    between atoms: C30_29  and  O4_30
REMARK   13  A    between atoms: C34_38  and  O5_40
REMARK                            x       y       z     vdW  Elec       q    Type
REMARK                         _______ _______ _______ _____ _____    ______ ____
ROOT
ATOM      1  C7  UNK     0       0.330  -1.122   0.277  0.00  0.00    +0.000 C 
ATOM      2  C8  UNK     0       1.098  -0.227  -0.767  0.00  0.00    +0.000 C 
ATOM      3  C9  UNK     0       2.681  -0.277  -0.716  0.00  0.00    +0.000 C 
ATOM      4  C10 UNK     0      -1.121  -0.450   0.490  0.00  0.00    +0.000 C 
ATOM      5  C11 UNK     0       3.095   0.313   0.687  0.00  0.00    +0.000 C 
ATOM      6  C12 UNK     0       1.167  -1.288   1.600  0.00  0.00    +0.000 C 
ATOM      7  C13 UNK     0       2.306  -0.283   1.916  0.00  0.00    +0.000 C 
ATOM      8  C14 UNK     0       4.638   0.645   0.903  0.00  0.00    +0.000 C 
ATOM      9  C15 UNK     0      -1.808  -0.298  -0.901  0.00  0.00    +0.000 C 
ATOM     10  C16 UNK     0      -3.334  -0.180  -1.025  0.00  0.00    +0.000 C 
ATOM     11  C17 UNK     0       3.253   0.666  -1.823  0.00  0.00    +0.000 C 
ATOM     12  C18 UNK     0       0.425  -0.343  -2.148  0.00  0.00    +0.000 C 
ATOM     13  C19 UNK     0      -2.007  -1.309   1.464  0.00  0.00    +0.000 C 
ATOM     14  C20 UNK     0      -4.033  -1.240  -0.119  0.00  0.00    +0.000 C 
ATOM     15  C21 UNK     0       0.116  -2.584  -0.286  0.00  0.00    +0.000 C 
ATOM     16  C22 UNK     0      -3.523  -1.080   1.340  0.00  0.00    +0.000 C 
ATOM     17  C23 UNK     0       5.126   1.535  -0.301  0.00  0.00    +0.000 C 
ATOM     18  C24 UNK     0       4.761   0.964  -1.690  0.00  0.00    +0.000 C 
ATOM     19  C25 UNK     0       3.205  -1.716  -0.974  0.00  0.00    +0.000 C 
ATOM     20  C26 UNK     0      -1.081  -0.211  -2.053  0.00  0.00    +0.000 C 
ATOM     21  C27 UNK     0      -1.016   0.973   1.126  0.00  0.00    +0.000 C 
ATOM     22  C28 UNK     0      -3.845   1.284  -0.794  0.00  0.00    +0.000 C 
ATOM     23  C29 UNK     0      -5.572  -1.072  -0.174  0.00  0.00    +0.000 C 
ATOM     24  C31 UNK     0      -5.398   1.346  -0.898  0.00  0.00    +0.000 C 
ATOM     25  C32 UNK     0       5.531  -0.638   0.980  0.00  0.00    +0.000 C 
ATOM     26  C33 UNK     0      -6.041   0.359   0.089  0.00  0.00    +0.000 C 
ATOM     27  C35 UNK     0      -3.191   2.256  -1.799  0.00  0.00    +0.000 C 
ATOM     28  C36 UNK     0      -5.953   2.758  -0.626  0.00  0.00    +0.000 C 
ENDROOT
BRANCH  17  29
ATOM     29  O2  UNK     0       6.522   1.714  -0.249  0.00  0.00    +0.000 OA
ATOM     30  H78 UNK     0       6.706   2.513   0.310  0.00  0.00    +0.000 HD
ENDBRANCH  17  29
BRANCH   7  31
ATOM     31  O1  UNK     0       3.179  -0.889   2.833  0.00  0.00    +0.000 OA
ATOM     32  H74 UNK     0       2.709  -0.935   3.707  0.00  0.00    +0.000 HD
ENDBRANCH   7  31
BRANCH  18  33
ATOM     33  O3  UNK     0       5.165   1.858  -2.700  0.00  0.00    +0.000 OA
ATOM     34  H79 UNK     0       4.649   2.699  -2.589  0.00  0.00    +0.000 HD
ENDBRANCH  18  33
BRANCH  14  35
ATOM     35  C34 UNK     0      -3.749  -2.650  -0.639  0.00  0.00    +0.000 C 
ATOM     36  O6  UNK     0      -3.622  -3.619   0.156  0.00  0.00    +0.000 OA
BRANCH  35  37
ATOM     37  O5  UNK     0      -3.683  -2.890  -2.010  0.00  0.00    +0.000 OA
ATOM     38  H84 UNK     0      -3.530  -3.827  -2.365  0.00  0.00    +0.000 HD
ENDBRANCH  35  37
ENDBRANCH  14  35
BRANCH   8  39
ATOM     39  C30 UNK     0       4.794   1.518   2.225  0.00  0.00    +0.000 C 
BRANCH  39  40
ATOM     40  O4  UNK     0       5.718   0.999   3.146  0.00  0.00    +0.000 OA
ATOM     41  H83 UNK     0       5.243   0.308   3.674  0.00  0.00    +0.000 HD
ENDBRANCH  39  40
ENDBRANCH   8  39
TORSDOF 7
