REMARK  Name = C:\Users\Maximilian\Desktop\Conformers\converted_pdb\conformers_pdb\Madecassic Acid_conf_51.pdb
REMARK  13 active torsions:
REMARK  status: ('A' for Active; 'I' for Inactive)
REMARK    1  A    between atoms: C7_1  and  C21_15
REMARK    2  A    between atoms: C9_3  and  C25_19
REMARK    3  A    between atoms: C10_4  and  C27_21
REMARK    4  A    between atoms: C13_7  and  O1_34
REMARK    5  A    between atoms: C14_8  and  C32_25
REMARK    6  A    between atoms: C14_8  and  C30_29
REMARK    7  A    between atoms: C20_14  and  C34_38
REMARK    8  A    between atoms: C23_17  and  O2_32
REMARK    9  A    between atoms: C24_18  and  O3_36
REMARK   10  A    between atoms: C28_22  and  C35_27
REMARK   11  A    between atoms: C31_24  and  C36_28
REMARK   12  A    between atoms: C30_29  and  O4_30
REMARK   13  A    between atoms: C34_38  and  O5_40
REMARK                            x       y       z     vdW  Elec       q    Type
REMARK                         _______ _______ _______ _____ _____    ______ ____
ROOT
ATOM      1  C7  UNK     0       0.351  -0.079   0.739  0.00  0.00    +0.000 C 
ATOM      2  C8  UNK     0       1.103  -0.183  -0.648  0.00  0.00    +0.000 C 
ATOM      3  C9  UNK     0       2.664  -0.530  -0.621  0.00  0.00    +0.000 C 
ATOM      4  C10 UNK     0      -1.138   0.523   0.491  0.00  0.00    +0.000 C 
ATOM      5  C11 UNK     0       3.367   0.479   0.372  0.00  0.00    +0.000 C 
ATOM      6  C12 UNK     0       1.195   0.845   1.685  0.00  0.00    +0.000 C 
ATOM      7  C13 UNK     0       2.701   0.520   1.781  0.00  0.00    +0.000 C 
ATOM      8  C14 UNK     0       4.957   0.509   0.335  0.00  0.00    +0.000 C 
ATOM      9  C15 UNK     0      -1.872  -0.295  -0.586  0.00  0.00    +0.000 C 
ATOM     10  C16 UNK     0      -3.402  -0.483  -0.540  0.00  0.00    +0.000 C 
ATOM     11  C17 UNK     0       3.238  -0.254  -2.052  0.00  0.00    +0.000 C 
ATOM     12  C18 UNK     0       0.295  -0.977  -1.710  0.00  0.00    +0.000 C 
ATOM     13  C19 UNK     0      -2.029   0.552   1.789  0.00  0.00    +0.000 C 
ATOM     14  C20 UNK     0      -3.879  -1.038   0.865  0.00  0.00    +0.000 C 
ATOM     15  C21 UNK     0       0.231  -1.472   1.416  0.00  0.00    +0.000 C 
ATOM     16  C22 UNK     0      -2.891  -0.703   2.026  0.00  0.00    +0.000 C 
ATOM     17  C23 UNK     0       5.401   0.743  -1.150  0.00  0.00    +0.000 C 
ATOM     18  C24 UNK     0       4.777  -0.251  -2.143  0.00  0.00    +0.000 C 
ATOM     19  C25 UNK     0       2.936  -2.034  -0.273  0.00  0.00    +0.000 C 
ATOM     20  C26 UNK     0      -1.199  -0.857  -1.613  0.00  0.00    +0.000 C 
ATOM     21  C27 UNK     0      -1.081   2.002  -0.022  0.00  0.00    +0.000 C 
ATOM     22  C28 UNK     0      -4.199   0.774  -1.029  0.00  0.00    +0.000 C 
ATOM     23  C29 UNK     0      -5.279  -0.455   1.230  0.00  0.00    +0.000 C 
ATOM     24  C31 UNK     0      -5.740   0.502  -1.080  0.00  0.00    +0.000 C 
ATOM     25  C32 UNK     0       5.631  -0.776   0.894  0.00  0.00    +0.000 C 
ATOM     26  C33 UNK     0      -6.216  -0.476   0.022  0.00  0.00    +0.000 C 
ATOM     27  C35 UNK     0      -3.704   1.245  -2.415  0.00  0.00    +0.000 C 
ATOM     28  C36 UNK     0      -6.539   1.816  -0.991  0.00  0.00    +0.000 C 
ENDROOT
BRANCH  17  29
ATOM     29  O2  UNK     0       6.804   0.662  -1.265  0.00  0.00    +0.000 OA
ATOM     30  H78 UNK     0       7.136   1.551  -1.558  0.00  0.00    +0.000 HD
ENDBRANCH  17  29
BRANCH   7  31
ATOM     31  O1  UNK     0       2.927  -0.652   2.517  0.00  0.00    +0.000 OA
ATOM     32  H74 UNK     0       2.720  -0.446   3.466  0.00  0.00    +0.000 HD
ENDBRANCH   7  31
BRANCH  18  33
ATOM     33  O3  UNK     0       5.158   0.120  -3.444  0.00  0.00    +0.000 OA
ATOM     34  H79 UNK     0       4.960  -0.651  -4.037  0.00  0.00    +0.000 HD
ENDBRANCH  18  33
BRANCH  14  35
ATOM     35  C34 UNK     0      -3.968  -2.564   0.787  0.00  0.00    +0.000 C 
ATOM     36  O6  UNK     0      -3.049  -3.220   0.225  0.00  0.00    +0.000 OA
BRANCH  35  37
ATOM     37  O5  UNK     0      -5.014  -3.256   1.395  0.00  0.00    +0.000 OA
ATOM     38  H84 UNK     0      -5.060  -4.267   1.359  0.00  0.00    +0.000 HD
ENDBRANCH  35  37
ENDBRANCH  14  35
BRANCH   8  39
ATOM     39  C30 UNK     0       5.499   1.727   1.159  0.00  0.00    +0.000 C 
BRANCH  39  40
ATOM     40  O4  UNK     0       5.496   1.467   2.538  0.00  0.00    +0.000 OA
ATOM     41  H83 UNK     0       5.804   2.302   2.979  0.00  0.00    +0.000 HD
ENDBRANCH  39  40
ENDBRANCH   8  39
TORSDOF 7
