REMARK  Name = C:\Users\Maximilian\Desktop\Conformers\converted_pdb\conformers_pdb\Madecassic Acid_conf_33.pdb
REMARK  13 active torsions:
REMARK  status: ('A' for Active; 'I' for Inactive)
REMARK    1  A    between atoms: C7_1  and  C21_15
REMARK    2  A    between atoms: C9_3  and  C25_19
REMARK    3  A    between atoms: C10_4  and  C27_21
REMARK    4  A    between atoms: C13_7  and  O1_34
REMARK    5  A    between atoms: C14_8  and  C32_25
REMARK    6  A    between atoms: C14_8  and  C30_29
REMARK    7  A    between atoms: C20_14  and  C34_38
REMARK    8  A    between atoms: C23_17  and  O2_32
REMARK    9  A    between atoms: C24_18  and  O3_36
REMARK   10  A    between atoms: C28_22  and  C35_27
REMARK   11  A    between atoms: C31_24  and  C36_28
REMARK   12  A    between atoms: C30_29  and  O4_30
REMARK   13  A    between atoms: C34_38  and  O5_40
REMARK                            x       y       z     vdW  Elec       q    Type
REMARK                         _______ _______ _______ _____ _____    ______ ____
ROOT
ATOM      1  C7  UNK     0      -0.371  -0.517  -0.603  0.00  0.00    +0.000 C 
ATOM      2  C8  UNK     0      -1.135   0.118   0.622  0.00  0.00    +0.000 C 
ATOM      3  C9  UNK     0      -2.695  -0.194   0.762  0.00  0.00    +0.000 C 
ATOM      4  C10 UNK     0       1.119   0.127  -0.684  0.00  0.00    +0.000 C 
ATOM      5  C11 UNK     0      -3.385   0.159  -0.615  0.00  0.00    +0.000 C 
ATOM      6  C12 UNK     0      -1.200  -0.227  -1.904  0.00  0.00    +0.000 C 
ATOM      7  C13 UNK     0      -2.711  -0.536  -1.836  0.00  0.00    +0.000 C 
ATOM      8  C14 UNK     0      -4.977   0.209  -0.612  0.00  0.00    +0.000 C 
ATOM      9  C15 UNK     0       1.847  -0.044   0.665  0.00  0.00    +0.000 C 
ATOM     10  C16 UNK     0       3.388  -0.163   0.761  0.00  0.00    +0.000 C 
ATOM     11  C17 UNK     0      -3.274   0.778   1.847  0.00  0.00    +0.000 C 
ATOM     12  C18 UNK     0      -0.347  -0.009   1.954  0.00  0.00    +0.000 C 
ATOM     13  C19 UNK     0       1.979  -0.521  -1.830  0.00  0.00    +0.000 C 
ATOM     14  C20 UNK     0       4.041  -1.070  -0.370  0.00  0.00    +0.000 C 
ATOM     15  C21 UNK     0      -0.243  -2.062  -0.444  0.00  0.00    +0.000 C 
ATOM     16  C22 UNK     0       2.959  -1.602  -1.349  0.00  0.00    +0.000 C 
ATOM     17  C23 UNK     0      -5.420   1.177   0.541  0.00  0.00    +0.000 C 
ATOM     18  C24 UNK     0      -4.812   0.832   1.916  0.00  0.00    +0.000 C 
ATOM     19  C25 UNK     0      -2.968  -1.666   1.230  0.00  0.00    +0.000 C 
ATOM     20  C26 UNK     0       1.149  -0.061   1.825  0.00  0.00    +0.000 C 
ATOM     21  C27 UNK     0       1.092   1.665  -0.960  0.00  0.00    +0.000 C 
ATOM     22  C28 UNK     0       4.107   1.226   0.932  0.00  0.00    +0.000 C 
ATOM     23  C29 UNK     0       5.107  -0.282  -1.181  0.00  0.00    +0.000 C 
ATOM     24  C31 UNK     0       5.650   1.007   1.000  0.00  0.00    +0.000 C 
ATOM     25  C32 UNK     0      -5.652  -1.181  -0.438  0.00  0.00    +0.000 C 
ATOM     26  C33 UNK     0       6.194   0.349  -0.297  0.00  0.00    +0.000 C 
ATOM     27  C35 UNK     0       3.582   1.992   2.164  0.00  0.00    +0.000 C 
ATOM     28  C36 UNK     0       6.438   2.299   1.288  0.00  0.00    +0.000 C 
ENDROOT
BRANCH  17  29
ATOM     29  O2  UNK     0      -6.824   1.278   0.632  0.00  0.00    +0.000 OA
ATOM     30  H78 UNK     0      -7.167   0.465   1.086  0.00  0.00    +0.000 HD
ENDBRANCH  17  29
BRANCH   7  31
ATOM     31  O1  UNK     0      -2.951  -1.917  -1.871  0.00  0.00    +0.000 OA
ATOM     32  H74 UNK     0      -2.741  -2.229  -2.790  0.00  0.00    +0.000 HD
ENDBRANCH   7  31
BRANCH  18  33
ATOM     33  O3  UNK     0      -5.194   1.823   2.836  0.00  0.00    +0.000 OA
ATOM     34  H79 UNK     0      -5.049   1.447   3.744  0.00  0.00    +0.000 HD
ENDBRANCH  18  33
BRANCH  14  35
ATOM     35  C34 UNK     0       4.750  -2.290   0.227  0.00  0.00    +0.000 C 
ATOM     36  O6  UNK     0       5.340  -2.218   1.341  0.00  0.00    +0.000 OA
BRANCH  35  37
ATOM     37  O5  UNK     0       4.843  -3.475  -0.501  0.00  0.00    +0.000 OA
ATOM     38  H84 UNK     0       5.345  -4.274  -0.134  0.00  0.00    +0.000 HD
ENDBRANCH  35  37
ENDBRANCH  14  35
BRANCH   8  39
ATOM     39  C30 UNK     0      -5.504   0.831  -1.950  0.00  0.00    +0.000 C 
BRANCH  39  40
ATOM     40  O4  UNK     0      -5.493  -0.102  -2.999  0.00  0.00    +0.000 OA
ATOM     41  H83 UNK     0      -5.752   0.396  -3.817  0.00  0.00    +0.000 HD
ENDBRANCH  39  40
ENDBRANCH   8  39
TORSDOF 7
