REMARK  Name = C:\Users\Maximilian\Desktop\Conformers\converted_pdb\conformers_pdb\Madecassic Acid_conf_19.pdb
REMARK  13 active torsions:
REMARK  status: ('A' for Active; 'I' for Inactive)
REMARK    1  A    between atoms: C7_1  and  C21_15
REMARK    2  A    between atoms: C9_3  and  C25_19
REMARK    3  A    between atoms: C10_4  and  C27_21
REMARK    4  A    between atoms: C13_7  and  O1_34
REMARK    5  A    between atoms: C14_8  and  C32_25
REMARK    6  A    between atoms: C14_8  and  C30_29
REMARK    7  A    between atoms: C20_14  and  C34_38
REMARK    8  A    between atoms: C23_17  and  O2_32
REMARK    9  A    between atoms: C24_18  and  O3_36
REMARK   10  A    between atoms: C28_22  and  C35_27
REMARK   11  A    between atoms: C31_24  and  C36_28
REMARK   12  A    between atoms: C30_29  and  O4_30
REMARK   13  A    between atoms: C34_38  and  O5_40
REMARK                            x       y       z     vdW  Elec       q    Type
REMARK                         _______ _______ _______ _____ _____    ______ ____
ROOT
ATOM      1  C7  UNK     0       0.403  -0.232  -0.851  0.00  0.00    +0.000 C 
ATOM      2  C8  UNK     0       1.114   0.507   0.349  0.00  0.00    +0.000 C 
ATOM      3  C9  UNK     0       2.709   0.666   0.294  0.00  0.00    +0.000 C 
ATOM      4  C10 UNK     0      -1.126  -0.577  -0.432  0.00  0.00    +0.000 C 
ATOM      5  C11 UNK     0       3.317  -0.753  -0.047  0.00  0.00    +0.000 C 
ATOM      6  C12 UNK     0       1.183  -1.545  -1.192  0.00  0.00    +0.000 C 
ATOM      7  C13 UNK     0       2.708  -1.393  -1.334  0.00  0.00    +0.000 C 
ATOM      8  C14 UNK     0       4.886  -0.921   0.143  0.00  0.00    +0.000 C 
ATOM      9  C15 UNK     0      -1.843   0.697   0.063  0.00  0.00    +0.000 C 
ATOM     10  C16 UNK     0      -3.379   0.849   0.008  0.00  0.00    +0.000 C 
ATOM     11  C17 UNK     0       3.198   1.059   1.732  0.00  0.00    +0.000 C 
ATOM     12  C18 UNK     0       0.350   1.794   0.751  0.00  0.00    +0.000 C 
ATOM     13  C19 UNK     0      -1.899  -1.198  -1.647  0.00  0.00    +0.000 C 
ATOM     14  C20 UNK     0      -4.009   0.209  -1.283  0.00  0.00    +0.000 C 
ATOM     15  C21 UNK     0       0.402   0.682  -2.121  0.00  0.00    +0.000 C 
ATOM     16  C22 UNK     0      -3.422  -1.212  -1.492  0.00  0.00    +0.000 C 
ATOM     17  C23 UNK     0       5.253  -0.462   1.597  0.00  0.00    +0.000 C 
ATOM     18  C24 UNK     0       4.724   0.948   1.950  0.00  0.00    +0.000 C 
ATOM     19  C25 UNK     0       3.180   1.794  -0.692  0.00  0.00    +0.000 C 
ATOM     20  C26 UNK     0      -1.148   1.696   0.659  0.00  0.00    +0.000 C 
ATOM     21  C27 UNK     0      -1.222  -1.615   0.736  0.00  0.00    +0.000 C 
ATOM     22  C28 UNK     0      -4.145   0.383   1.293  0.00  0.00    +0.000 C 
ATOM     23  C29 UNK     0      -5.563   0.070  -1.150  0.00  0.00    +0.000 C 
ATOM     24  C31 UNK     0      -5.628   0.889   1.260  0.00  0.00    +0.000 C 
ATOM     25  C32 UNK     0       5.717  -0.141  -0.911  0.00  0.00    +0.000 C 
ATOM     26  C33 UNK     0      -6.162   1.093  -0.182  0.00  0.00    +0.000 C 
ATOM     27  C35 UNK     0      -3.463   0.834   2.599  0.00  0.00    +0.000 C 
ATOM     28  C36 UNK     0      -6.557  -0.057   2.044  0.00  0.00    +0.000 C 
ENDROOT
BRANCH  17  29
ATOM     29  O2  UNK     0       6.637  -0.555   1.844  0.00  0.00    +0.000 OA
ATOM     30  H78 UNK     0       7.083   0.219   1.412  0.00  0.00    +0.000 HD
ENDBRANCH  17  29
BRANCH   7  31
ATOM     31  O1  UNK     0       3.039  -0.689  -2.500  0.00  0.00    +0.000 OA
ATOM     32  H74 UNK     0       2.835  -1.284  -3.269  0.00  0.00    +0.000 HD
ENDBRANCH   7  31
BRANCH  18  33
ATOM     33  O3  UNK     0       5.042   1.271   3.282  0.00  0.00    +0.000 OA
ATOM     34  H79 UNK     0       4.608   0.600   3.872  0.00  0.00    +0.000 HD
ENDBRANCH  18  33
BRANCH  14  35
ATOM     35  C34 UNK     0      -3.725   1.072  -2.513  0.00  0.00    +0.000 C 
ATOM     36  O6  UNK     0      -3.516   2.310  -2.405  0.00  0.00    +0.000 OA
BRANCH  35  37
ATOM     37  O5  UNK     0      -3.782   0.508  -3.785  0.00  0.00    +0.000 OA
ATOM     38  H84 UNK     0      -3.624   1.071  -4.612  0.00  0.00    +0.000 HD
ENDBRANCH  35  37
ENDBRANCH  14  35
BRANCH   8  39
ATOM     39  C30 UNK     0       5.307  -2.420   0.006  0.00  0.00    +0.000 C 
BRANCH  39  40
ATOM     40  O4  UNK     0       4.525  -3.253   0.820  0.00  0.00    +0.000 OA
ATOM     41  H83 UNK     0       4.851  -4.177   0.668  0.00  0.00    +0.000 HD
ENDBRANCH  39  40
ENDBRANCH   8  39
TORSDOF 7
