REMARK  Name = C:\Users\Maximilian\Desktop\Conformers\converted_pdb\conformers_pdb\Madecassic Acid_conf_20.pdb
REMARK  13 active torsions:
REMARK  status: ('A' for Active; 'I' for Inactive)
REMARK    1  A    between atoms: C7_1  and  C21_15
REMARK    2  A    between atoms: C9_3  and  C25_19
REMARK    3  A    between atoms: C10_4  and  C27_21
REMARK    4  A    between atoms: C13_7  and  O1_34
REMARK    5  A    between atoms: C14_8  and  C32_25
REMARK    6  A    between atoms: C14_8  and  C30_29
REMARK    7  A    between atoms: C20_14  and  C34_38
REMARK    8  A    between atoms: C23_17  and  O2_32
REMARK    9  A    between atoms: C24_18  and  O3_36
REMARK   10  A    between atoms: C28_22  and  C35_27
REMARK   11  A    between atoms: C31_24  and  C36_28
REMARK   12  A    between atoms: C30_29  and  O4_30
REMARK   13  A    between atoms: C34_38  and  O5_40
REMARK                            x       y       z     vdW  Elec       q    Type
REMARK                         _______ _______ _______ _____ _____    ______ ____
ROOT
ATOM      1  C7  UNK     0      -0.305  -0.051   0.809  0.00  0.00    +0.000 C 
ATOM      2  C8  UNK     0      -1.101   0.374  -0.480  0.00  0.00    +0.000 C 
ATOM      3  C9  UNK     0      -2.673   0.588  -0.343  0.00  0.00    +0.000 C 
ATOM      4  C10 UNK     0       1.172  -0.507   0.337  0.00  0.00    +0.000 C 
ATOM      5  C11 UNK     0      -3.280  -0.679   0.367  0.00  0.00    +0.000 C 
ATOM      6  C12 UNK     0      -1.052  -1.218   1.536  0.00  0.00    +0.000 C 
ATOM      7  C13 UNK     0      -2.573  -1.025   1.714  0.00  0.00    +0.000 C 
ATOM      8  C14 UNK     0      -4.877  -0.797   0.380  0.00  0.00    +0.000 C 
ATOM      9  C15 UNK     0       1.858   0.707  -0.328  0.00  0.00    +0.000 C 
ATOM     10  C16 UNK     0       3.384   0.890  -0.309  0.00  0.00    +0.000 C 
ATOM     11  C17 UNK     0      -3.260   0.642  -1.797  0.00  0.00    +0.000 C 
ATOM     12  C18 UNK     0      -0.368   1.493  -1.282  0.00  0.00    +0.000 C 
ATOM     13  C19 UNK     0       1.992  -1.080   1.552  0.00  0.00    +0.000 C 
ATOM     14  C20 UNK     0       3.955   0.496   1.089  0.00  0.00    +0.000 C 
ATOM     15  C21 UNK     0      -0.203   1.157   1.809  0.00  0.00    +0.000 C 
ATOM     16  C22 UNK     0       3.516  -0.952   1.429  0.00  0.00    +0.000 C 
ATOM     17  C23 UNK     0      -5.557   0.195  -0.634  0.00  0.00    +0.000 C 
ATOM     18  C24 UNK     0      -4.779   0.383  -1.958  0.00  0.00    +0.000 C 
ATOM     19  C25 UNK     0      -3.022   1.932   0.382  0.00  0.00    +0.000 C 
ATOM     20  C26 UNK     0       1.125   1.582  -1.062  0.00  0.00    +0.000 C 
ATOM     21  C27 UNK     0       1.161  -1.629  -0.761  0.00  0.00    +0.000 C 
ATOM     22  C28 UNK     0       4.097   0.147  -1.500  0.00  0.00    +0.000 C 
ATOM     23  C29 UNK     0       5.499   0.616   1.093  0.00  0.00    +0.000 C 
ATOM     24  C31 UNK     0       5.644   0.320  -1.416  0.00  0.00    +0.000 C 
ATOM     25  C32 UNK     0      -5.502  -0.543   1.784  0.00  0.00    +0.000 C 
ATOM     26  C33 UNK     0       6.169  -0.143  -0.048  0.00  0.00    +0.000 C 
ATOM     27  C35 UNK     0       3.569   0.633  -2.868  0.00  0.00    +0.000 C 
ATOM     28  C36 UNK     0       6.387  -0.463  -2.518  0.00  0.00    +0.000 C 
ENDROOT
BRANCH  17  29
ATOM     29  O2  UNK     0      -5.790   1.452  -0.043  0.00  0.00    +0.000 OA
ATOM     30  H78 UNK     0      -6.528   1.887  -0.550  0.00  0.00    +0.000 HD
ENDBRANCH  17  29
BRANCH   7  31
ATOM     31  O1  UNK     0      -2.845  -0.076   2.710  0.00  0.00    +0.000 OA
ATOM     32  H74 UNK     0      -2.608  -0.487   3.580  0.00  0.00    +0.000 HD
ENDBRANCH   7  31
BRANCH  18  33
ATOM     33  O3  UNK     0      -4.974  -0.733  -2.793  0.00  0.00    +0.000 OA
ATOM     34  H79 UNK     0      -5.886  -0.656  -3.181  0.00  0.00    +0.000 HD
ENDBRANCH  18  33
BRANCH  14  35
ATOM     35  C34 UNK     0       3.460   1.443   2.178  0.00  0.00    +0.000 C 
ATOM     36  O6  UNK     0       2.908   2.541   1.890  0.00  0.00    +0.000 OA
BRANCH  35  37
ATOM     37  O5  UNK     0       3.678   1.126   3.518  0.00  0.00    +0.000 OA
ATOM     38  H84 UNK     0       3.403   1.767   4.255  0.00  0.00    +0.000 HD
ENDBRANCH  35  37
ENDBRANCH  14  35
BRANCH   8  39
ATOM     39  C30 UNK     0      -5.291  -2.251  -0.028  0.00  0.00    +0.000 C 
BRANCH  39  40
ATOM     40  O4  UNK     0      -4.769  -3.200   0.861  0.00  0.00    +0.000 OA
ATOM     41  H83 UNK     0      -5.029  -4.088   0.505  0.00  0.00    +0.000 HD
ENDBRANCH  39  40
ENDBRANCH   8  39
TORSDOF 7
