REMARK  Name = C:\Users\Maximilian\Desktop\Conformers\converted_pdb\conformers_pdb\MPLA_conf_13.pdb
REMARK  3 active torsions:
REMARK  status: ('A' for Active; 'I' for Inactive)
REMARK    1  A    between atoms: N2_1  and  C11_10
REMARK    2  A    between atoms: C9_12  and  C14_16
REMARK    3  A    between atoms: C14_16  and  O1_17
REMARK                            x       y       z     vdW  Elec       q    Type
REMARK                         _______ _______ _______ _____ _____    ______ ____
ROOT
ATOM      1  N2  UNK     0      -0.377   0.093  -0.848  0.00  0.00    +0.000 N 
ATOM      2  N3  UNK     0      -0.050   1.289  -1.336  0.00  0.00    +0.000 NA
ATOM      3  N4  UNK     0      -0.946   2.216  -0.988  0.00  0.00    +0.000 NA
ATOM      4  N5  UNK     0      -2.255  -0.653   0.500  0.00  0.00    +0.000 NA
ATOM      5  N6  UNK     0      -3.771   1.099   1.047  0.00  0.00    +0.000 NA
ATOM      6  C16 UNK     0      -1.519   0.266  -0.170  0.00  0.00    +0.000 A 
ATOM      7  C17 UNK     0      -1.866   1.564  -0.254  0.00  0.00    +0.000 A 
ATOM      8  C18 UNK     0      -3.022   2.018   0.365  0.00  0.00    +0.000 A 
ATOM      9  C19 UNK     0      -3.398  -0.223   1.118  0.00  0.00    +0.000 A 
ATOM     10  N8  UNK     0      -4.207  -1.150   1.838  0.00  0.00    +0.000 N 
ATOM     11  H33 UNK     0      -3.932  -2.155   1.898  0.00  0.00    +0.000 HD
ATOM     12  H34 UNK     0      -5.081  -0.832   2.312  0.00  0.00    +0.000 HD
ATOM     13  N7  UNK     0      -3.425   3.386   0.301  0.00  0.00    +0.000 N 
ATOM     14  H32 UNK     0      -2.856   4.090  -0.218  0.00  0.00    +0.000 HD
ATOM     15  H31 UNK     0      -4.301   3.698   0.778  0.00  0.00    +0.000 HD
ENDROOT
BRANCH   1  16
ATOM     16  C11 UNK     0       0.376  -1.155  -1.031  0.00  0.00    +0.000 C 
ATOM     17  C10 UNK     0       1.040  -1.601   0.293  0.00  0.00    +0.000 C 
ATOM     18  C9  UNK     0       2.449  -1.015   0.506  0.00  0.00    +0.000 C 
ATOM     19  C12 UNK     0       3.345  -1.364  -0.696  0.00  0.00    +0.000 C 
ATOM     20  C15 UNK     0       2.691  -1.046  -2.016  0.00  0.00    +0.000 C 
ATOM     21  C13 UNK     0       1.359  -1.025  -2.178  0.00  0.00    +0.000 C 
BRANCH  18  22
ATOM     22  C14 UNK     0       2.427   0.498   0.791  0.00  0.00    +0.000 C 
BRANCH  22  23
ATOM     23  O1  UNK     0       3.661   0.899   1.321  0.00  0.00    +0.000 OA
ATOM     24  H30 UNK     0       3.588   1.875   1.483  0.00  0.00    +0.000 HD
ENDBRANCH  22  23
ENDBRANCH  18  22
ENDBRANCH   1  16
TORSDOF 3
