REMARK  Name = C:\Users\Maximilian\Desktop\Conformers\converted_pdb\conformers_pdb\MPLA_conf_30.pdb
REMARK  3 active torsions:
REMARK  status: ('A' for Active; 'I' for Inactive)
REMARK    1  A    between atoms: N2_1  and  C11_10
REMARK    2  A    between atoms: C9_12  and  C14_16
REMARK    3  A    between atoms: C14_16  and  O1_17
REMARK                            x       y       z     vdW  Elec       q    Type
REMARK                         _______ _______ _______ _____ _____    ______ ____
ROOT
ATOM      1  N2  UNK     0      -0.544  -0.056  -0.843  0.00  0.00    +0.000 N 
ATOM      2  N3  UNK     0      -0.249   0.543  -1.997  0.00  0.00    +0.000 NA
ATOM      3  N4  UNK     0      -1.232   1.362  -2.379  0.00  0.00    +0.000 NA
ATOM      4  N5  UNK     0      -2.445   0.141   0.653  0.00  0.00    +0.000 NA
ATOM      5  N6  UNK     0      -4.107   1.653  -0.138  0.00  0.00    +0.000 NA
ATOM      6  C16 UNK     0      -1.741   0.413  -0.471  0.00  0.00    +0.000 A 
ATOM      7  C17 UNK     0      -2.166   1.275  -1.415  0.00  0.00    +0.000 A 
ATOM      8  C18 UNK     0      -3.383   1.926  -1.266  0.00  0.00    +0.000 A 
ATOM      9  C19 UNK     0      -3.650   0.772   0.815  0.00  0.00    +0.000 A 
ATOM     10  N8  UNK     0      -4.433   0.518   1.978  0.00  0.00    +0.000 N 
ATOM     11  H33 UNK     0      -5.353   0.995   2.111  0.00  0.00    +0.000 HD
ATOM     12  H34 UNK     0      -4.095  -0.147   2.708  0.00  0.00    +0.000 HD
ATOM     13  N7  UNK     0      -3.867   2.851  -2.239  0.00  0.00    +0.000 N 
ATOM     14  H32 UNK     0      -4.786   3.327  -2.098  0.00  0.00    +0.000 HD
ATOM     15  H31 UNK     0      -3.315   3.064  -3.099  0.00  0.00    +0.000 HD
ENDROOT
BRANCH   1  16
ATOM     16  C11 UNK     0       0.348  -0.942  -0.095  0.00  0.00    +0.000 C 
ATOM     17  C10 UNK     0       1.400  -0.109   0.656  0.00  0.00    +0.000 C 
ATOM     18  C9  UNK     0       2.491  -1.026   1.235  0.00  0.00    +0.000 C 
ATOM     19  C12 UNK     0       3.206  -1.773   0.093  0.00  0.00    +0.000 C 
ATOM     20  C15 UNK     0       2.236  -2.397  -0.879  0.00  0.00    +0.000 C 
ATOM     21  C13 UNK     0       0.974  -1.959  -1.026  0.00  0.00    +0.000 C 
BRANCH  18  22
ATOM     22  C14 UNK     0       3.486  -0.240   2.104  0.00  0.00    +0.000 C 
BRANCH  22  23
ATOM     23  O1  UNK     0       4.123   0.760   1.355  0.00  0.00    +0.000 OA
ATOM     24  H30 UNK     0       4.747   1.215   1.977  0.00  0.00    +0.000 HD
ENDBRANCH  22  23
ENDBRANCH  18  22
ENDBRANCH   1  16
TORSDOF 3
