REMARK  Name = C:\Users\Maximilian\Desktop\Conformers\converted_pdb\conformers_pdb\MPLA_conf_2.pdb
REMARK  3 active torsions:
REMARK  status: ('A' for Active; 'I' for Inactive)
REMARK    1  A    between atoms: N2_1  and  C11_10
REMARK    2  A    between atoms: C9_12  and  C14_16
REMARK    3  A    between atoms: C14_16  and  O1_17
REMARK                            x       y       z     vdW  Elec       q    Type
REMARK                         _______ _______ _______ _____ _____    ______ ____
ROOT
ATOM      1  N2  UNK     0       0.706  -0.851   0.019  0.00  0.00    +0.000 N 
ATOM      2  N3  UNK     0       1.010  -1.677   1.020  0.00  0.00    +0.000 NA
ATOM      3  N4  UNK     0       2.286  -1.538   1.387  0.00  0.00    +0.000 NA
ATOM      4  N5  UNK     0       2.000   0.840  -1.147  0.00  0.00    +0.000 NA
ATOM      5  N6  UNK     0       4.247   0.998  -0.374  0.00  0.00    +0.000 NA
ATOM      6  C16 UNK     0       1.816  -0.152  -0.244  0.00  0.00    +0.000 A 
ATOM      7  C17 UNK     0       2.786  -0.577   0.588  0.00  0.00    +0.000 A 
ATOM      8  C18 UNK     0       4.048   0.000   0.540  0.00  0.00    +0.000 A 
ATOM      9  C19 UNK     0       3.240   1.419  -1.210  0.00  0.00    +0.000 A 
ATOM     10  N8  UNK     0       3.487   2.465  -2.147  0.00  0.00    +0.000 N 
ATOM     11  H33 UNK     0       2.728   2.792  -2.785  0.00  0.00    +0.000 HD
ATOM     12  H34 UNK     0       4.428   2.913  -2.202  0.00  0.00    +0.000 HD
ATOM     13  N7  UNK     0       5.102  -0.417   1.408  0.00  0.00    +0.000 N 
ATOM     14  H32 UNK     0       6.040   0.038   1.350  0.00  0.00    +0.000 HD
ATOM     15  H31 UNK     0       4.952  -1.177   2.108  0.00  0.00    +0.000 HD
ENDROOT
BRANCH   1  16
ATOM     16  C11 UNK     0      -0.626  -0.677  -0.562  0.00  0.00    +0.000 C 
ATOM     17  C10 UNK     0      -1.485   0.203   0.361  0.00  0.00    +0.000 C 
ATOM     18  C9  UNK     0      -2.954   0.189  -0.098  0.00  0.00    +0.000 C 
ATOM     19  C12 UNK     0      -3.499  -1.251  -0.028  0.00  0.00    +0.000 C 
ATOM     20  C15 UNK     0      -2.573  -2.251  -0.674  0.00  0.00    +0.000 C 
ATOM     21  C13 UNK     0      -1.258  -2.025  -0.830  0.00  0.00    +0.000 C 
BRANCH  18  22
ATOM     22  C14 UNK     0      -3.821   1.130   0.756  0.00  0.00    +0.000 C 
BRANCH  22  23
ATOM     23  O1  UNK     0      -3.453   2.468   0.545  0.00  0.00    +0.000 OA
ATOM     24  H30 UNK     0      -2.796   2.703   1.250  0.00  0.00    +0.000 HD
ENDBRANCH  22  23
ENDBRANCH  18  22
ENDBRANCH   1  16
TORSDOF 3
