REMARK  Name = C:\Users\Maximilian\Desktop\Conformers\converted_pdb\conformers_pdb\MPLA_conf_28.pdb
REMARK  3 active torsions:
REMARK  status: ('A' for Active; 'I' for Inactive)
REMARK    1  A    between atoms: N2_1  and  C11_10
REMARK    2  A    between atoms: C9_12  and  C14_16
REMARK    3  A    between atoms: C14_16  and  O1_17
REMARK                            x       y       z     vdW  Elec       q    Type
REMARK                         _______ _______ _______ _____ _____    ______ ____
ROOT
ATOM      1  N2  UNK     0       0.640   0.318   0.749  0.00  0.00    +0.000 N 
ATOM      2  N3  UNK     0       0.735   1.475   1.403  0.00  0.00    +0.000 NA
ATOM      3  N4  UNK     0       1.977   1.962   1.343  0.00  0.00    +0.000 NA
ATOM      4  N5  UNK     0       2.255  -0.965  -0.532  0.00  0.00    +0.000 NA
ATOM      5  N6  UNK     0       4.419   0.029  -0.573  0.00  0.00    +0.000 NA
ATOM      6  C16 UNK     0       1.854   0.071   0.242  0.00  0.00    +0.000 A 
ATOM      7  C17 UNK     0       2.675   1.073   0.612  0.00  0.00    +0.000 A 
ATOM      8  C18 UNK     0       4.001   1.074   0.204  0.00  0.00    +0.000 A 
ATOM      9  C19 UNK     0       3.563  -0.982  -0.941  0.00  0.00    +0.000 A 
ATOM     10  N8  UNK     0       4.037  -2.052  -1.755  0.00  0.00    +0.000 N 
ATOM     11  H33 UNK     0       3.394  -2.824  -2.041  0.00  0.00    +0.000 HD
ATOM     12  H34 UNK     0       5.031  -2.074  -2.072  0.00  0.00    +0.000 HD
ATOM     13  N7  UNK     0       4.903   2.119   0.569  0.00  0.00    +0.000 N 
ATOM     14  H32 UNK     0       5.895   2.093   0.245  0.00  0.00    +0.000 HD
ATOM     15  H31 UNK     0       4.586   2.919   1.161  0.00  0.00    +0.000 HD
ENDROOT
BRANCH   1  16
ATOM     16  C11 UNK     0      -0.592  -0.446   0.547  0.00  0.00    +0.000 C 
ATOM     17  C10 UNK     0      -1.504   0.273  -0.466  0.00  0.00    +0.000 C 
ATOM     18  C9  UNK     0      -2.909  -0.397  -0.607  0.00  0.00    +0.000 C 
ATOM     19  C12 UNK     0      -3.232  -1.428   0.513  0.00  0.00    +0.000 C 
ATOM     20  C15 UNK     0      -2.597  -1.055   1.826  0.00  0.00    +0.000 C 
ATOM     21  C13 UNK     0      -1.333  -0.619   1.849  0.00  0.00    +0.000 C 
BRANCH  18  22
ATOM     22  C14 UNK     0      -4.026   0.658  -0.736  0.00  0.00    +0.000 C 
BRANCH  22  23
ATOM     23  O1  UNK     0      -4.237   1.322   0.483  0.00  0.00    +0.000 OA
ATOM     24  H30 UNK     0      -3.736   2.177   0.443  0.00  0.00    +0.000 HD
ENDBRANCH  22  23
ENDBRANCH  18  22
ENDBRANCH   1  16
TORSDOF 3
