REMARK  Name = C:\Users\Maximilian\Desktop\Conformers\converted_pdb\conformers_pdb\MPLA_conf_29.pdb
REMARK  3 active torsions:
REMARK  status: ('A' for Active; 'I' for Inactive)
REMARK    1  A    between atoms: N2_1  and  C11_10
REMARK    2  A    between atoms: C9_12  and  C14_16
REMARK    3  A    between atoms: C14_16  and  O1_17
REMARK                            x       y       z     vdW  Elec       q    Type
REMARK                         _______ _______ _______ _____ _____    ______ ____
ROOT
ATOM      1  N2  UNK     0       0.625   0.759   0.057  0.00  0.00    +0.000 N 
ATOM      2  N3  UNK     0       0.696   1.937  -0.562  0.00  0.00    +0.000 NA
ATOM      3  N4  UNK     0       1.950   2.214  -0.928  0.00  0.00    +0.000 NA
ATOM      4  N5  UNK     0       2.303  -0.924   0.551  0.00  0.00    +0.000 NA
ATOM      5  N6  UNK     0       4.487  -0.311  -0.175  0.00  0.00    +0.000 NA
ATOM      6  C16 UNK     0       1.868   0.263   0.068  0.00  0.00    +0.000 A 
ATOM      7  C17 UNK     0       2.681   1.156  -0.528  0.00  0.00    +0.000 A 
ATOM      8  C18 UNK     0       4.035   0.884  -0.665  0.00  0.00    +0.000 A 
ATOM      9  C19 UNK     0       3.637  -1.209   0.427  0.00  0.00    +0.000 A 
ATOM     10  N8  UNK     0       4.147  -2.445   0.922  0.00  0.00    +0.000 N 
ATOM     11  H33 UNK     0       3.510  -3.134   1.380  0.00  0.00    +0.000 HD
ATOM     12  H34 UNK     0       5.162  -2.671   0.832  0.00  0.00    +0.000 HD
ATOM     13  N7  UNK     0       4.930   1.800  -1.295  0.00  0.00    +0.000 N 
ATOM     14  H32 UNK     0       5.943   1.565  -1.385  0.00  0.00    +0.000 HD
ATOM     15  H31 UNK     0       4.587   2.712  -1.671  0.00  0.00    +0.000 HD
ENDROOT
BRANCH   1  16
ATOM     16  C11 UNK     0      -0.606   0.114   0.517  0.00  0.00    +0.000 C 
ATOM     17  C10 UNK     0      -1.421  -0.397  -0.686  0.00  0.00    +0.000 C 
ATOM     18  C9  UNK     0      -2.825  -0.952  -0.282  0.00  0.00    +0.000 C 
ATOM     19  C12 UNK     0      -3.258  -0.580   1.165  0.00  0.00    +0.000 C 
ATOM     20  C15 UNK     0      -2.717   0.758   1.593  0.00  0.00    +0.000 C 
ATOM     21  C13 UNK     0      -1.448   1.077   1.315  0.00  0.00    +0.000 C 
BRANCH  18  22
ATOM     22  C14 UNK     0      -3.900  -0.553  -1.313  0.00  0.00    +0.000 C 
BRANCH  22  23
ATOM     23  O1  UNK     0      -4.083   0.839  -1.347  0.00  0.00    +0.000 OA
ATOM     24  H30 UNK     0      -4.746   1.060  -0.643  0.00  0.00    +0.000 HD
ENDBRANCH  22  23
ENDBRANCH  18  22
ENDBRANCH   1  16
TORSDOF 3
