REMARK  Name = C:\Users\Maximilian\Desktop\Conformers\converted_pdb\conformers_pdb\MPLA_conf_8.pdb
REMARK  3 active torsions:
REMARK  status: ('A' for Active; 'I' for Inactive)
REMARK    1  A    between atoms: N2_1  and  C11_10
REMARK    2  A    between atoms: C9_12  and  C14_16
REMARK    3  A    between atoms: C14_16  and  O1_17
REMARK                            x       y       z     vdW  Elec       q    Type
REMARK                         _______ _______ _______ _____ _____    ______ ____
ROOT
ATOM      1  N2  UNK     0      -0.628   0.483   0.730  0.00  0.00    +0.000 N 
ATOM      2  N3  UNK     0      -0.756   0.219   2.030  0.00  0.00    +0.000 NA
ATOM      3  N4  UNK     0      -2.001  -0.165   2.323  0.00  0.00    +0.000 NA
ATOM      4  N5  UNK     0      -2.185   0.318  -1.125  0.00  0.00    +0.000 NA
ATOM      5  N6  UNK     0      -4.357  -0.401  -0.464  0.00  0.00    +0.000 NA
ATOM      6  C16 UNK     0      -1.822   0.239   0.177  0.00  0.00    +0.000 A 
ATOM      7  C17 UNK     0      -2.665  -0.150   1.153  0.00  0.00    +0.000 A 
ATOM      8  C18 UNK     0      -3.977  -0.484   0.848  0.00  0.00    +0.000 A 
ATOM      9  C19 UNK     0      -3.478  -0.006  -1.444  0.00  0.00    +0.000 A 
ATOM     10  N8  UNK     0      -3.912   0.065  -2.800  0.00  0.00    +0.000 N 
ATOM     11  H33 UNK     0      -3.251   0.362  -3.552  0.00  0.00    +0.000 HD
ATOM     12  H34 UNK     0      -4.895  -0.181  -3.053  0.00  0.00    +0.000 HD
ATOM     13  N7  UNK     0      -4.901  -0.907   1.850  0.00  0.00    +0.000 N 
ATOM     14  H32 UNK     0      -4.613  -0.973   2.852  0.00  0.00    +0.000 HD
ATOM     15  H31 UNK     0      -5.881  -1.155   1.589  0.00  0.00    +0.000 HD
ENDROOT
BRANCH   1  16
ATOM     16  C11 UNK     0       0.621   0.837   0.055  0.00  0.00    +0.000 C 
ATOM     17  C10 UNK     0       1.470  -0.427  -0.166  0.00  0.00    +0.000 C 
ATOM     18  C9  UNK     0       2.882  -0.042  -0.639  0.00  0.00    +0.000 C 
ATOM     19  C12 UNK     0       3.578   0.809   0.440  0.00  0.00    +0.000 C 
ATOM     20  C15 UNK     0       2.699   1.929   0.940  0.00  0.00    +0.000 C 
ATOM     21  C13 UNK     0       1.359   1.896   0.846  0.00  0.00    +0.000 C 
BRANCH  18  22
ATOM     22  C14 UNK     0       3.718  -1.280  -1.010  0.00  0.00    +0.000 C 
BRANCH  22  23
ATOM     23  O1  UNK     0       3.908  -2.124   0.096  0.00  0.00    +0.000 OA
ATOM     24  H30 UNK     0       3.146  -2.759   0.109  0.00  0.00    +0.000 HD
ENDBRANCH  22  23
ENDBRANCH  18  22
ENDBRANCH   1  16
TORSDOF 3
