REMARK  Name = C:\Users\Maximilian\Desktop\Conformers\converted_pdb\conformers_pdb\MPLA_conf_31.pdb
REMARK  3 active torsions:
REMARK  status: ('A' for Active; 'I' for Inactive)
REMARK    1  A    between atoms: N2_1  and  C11_10
REMARK    2  A    between atoms: C9_12  and  C14_16
REMARK    3  A    between atoms: C14_16  and  O1_17
REMARK                            x       y       z     vdW  Elec       q    Type
REMARK                         _______ _______ _______ _____ _____    ______ ____
ROOT
ATOM      1  N2  UNK     0       0.704   0.500   0.577  0.00  0.00    +0.000 N 
ATOM      2  N3  UNK     0       0.890   1.809   0.741  0.00  0.00    +0.000 NA
ATOM      3  N4  UNK     0       2.144   2.159   0.446  0.00  0.00    +0.000 NA
ATOM      4  N5  UNK     0       2.174  -1.267  -0.205  0.00  0.00    +0.000 NA
ATOM      5  N6  UNK     0       4.370  -0.499  -0.718  0.00  0.00    +0.000 NA
ATOM      6  C16 UNK     0       1.870   0.005   0.145  0.00  0.00    +0.000 A 
ATOM      7  C17 UNK     0       2.754   1.019   0.071  0.00  0.00    +0.000 A 
ATOM      8  C18 UNK     0       4.049   0.784  -0.370  0.00  0.00    +0.000 A 
ATOM      9  C19 UNK     0       3.449  -1.518  -0.639  0.00  0.00    +0.000 A 
ATOM     10  N8  UNK     0       3.822  -2.842  -1.015  0.00  0.00    +0.000 N 
ATOM     11  H33 UNK     0       4.791  -3.043  -1.349  0.00  0.00    +0.000 HD
ATOM     12  H34 UNK     0       3.130  -3.621  -0.960  0.00  0.00    +0.000 HD
ATOM     13  N7  UNK     0       5.015   1.830  -0.468  0.00  0.00    +0.000 N 
ATOM     14  H32 UNK     0       5.980   1.623  -0.807  0.00  0.00    +0.000 HD
ATOM     15  H31 UNK     0       4.772   2.811  -0.205  0.00  0.00    +0.000 HD
ENDROOT
BRANCH   1  16
ATOM     16  C11 UNK     0      -0.572  -0.202   0.723  0.00  0.00    +0.000 C 
ATOM     17  C10 UNK     0      -1.438   0.028  -0.528  0.00  0.00    +0.000 C 
ATOM     18  C9  UNK     0      -2.871  -0.472  -0.282  0.00  0.00    +0.000 C 
ATOM     19  C12 UNK     0      -3.504   0.316   0.881  0.00  0.00    +0.000 C 
ATOM     20  C15 UNK     0      -2.598   0.377   2.085  0.00  0.00    +0.000 C 
ATOM     21  C13 UNK     0      -1.265   0.236   1.996  0.00  0.00    +0.000 C 
BRANCH  18  22
ATOM     22  C14 UNK     0      -3.728  -0.392  -1.559  0.00  0.00    +0.000 C 
BRANCH  22  23
ATOM     23  O1  UNK     0      -3.780   0.919  -2.060  0.00  0.00    +0.000 OA
ATOM     24  H30 UNK     0      -4.596   1.341  -1.685  0.00  0.00    +0.000 HD
ENDBRANCH  22  23
ENDBRANCH  18  22
ENDBRANCH   1  16
TORSDOF 3
