REMARK  Name = C:\Users\Maximilian\Desktop\Conformers\converted_pdb\conformers_pdb\MPLA_conf_19.pdb
REMARK  3 active torsions:
REMARK  status: ('A' for Active; 'I' for Inactive)
REMARK    1  A    between atoms: N2_1  and  C11_10
REMARK    2  A    between atoms: C9_12  and  C14_16
REMARK    3  A    between atoms: C14_16  and  O1_17
REMARK                            x       y       z     vdW  Elec       q    Type
REMARK                         _______ _______ _______ _____ _____    ______ ____
ROOT
ATOM      1  N2  UNK     0       0.567   1.522   0.350  0.00  0.00    +0.000 N 
ATOM      2  N3  UNK     0       1.153   2.591   0.887  0.00  0.00    +0.000 NA
ATOM      3  N4  UNK     0       2.480   2.531   0.756  0.00  0.00    +0.000 NA
ATOM      4  N5  UNK     0       1.473  -0.446  -0.754  0.00  0.00    +0.000 NA
ATOM      5  N6  UNK     0       3.849  -0.423  -0.909  0.00  0.00    +0.000 NA
ATOM      6  C16 UNK     0       1.556   0.753  -0.130  0.00  0.00    +0.000 A 
ATOM      7  C17 UNK     0       2.726   1.373   0.116  0.00  0.00    +0.000 A 
ATOM      8  C18 UNK     0       3.921   0.787  -0.276  0.00  0.00    +0.000 A 
ATOM      9  C19 UNK     0       2.643  -1.038  -1.149  0.00  0.00    +0.000 A 
ATOM     10  N8  UNK     0       2.609  -2.300  -1.811  0.00  0.00    +0.000 N 
ATOM     11  H33 UNK     0       1.698  -2.776  -1.996  0.00  0.00    +0.000 HD
ATOM     12  H34 UNK     0       3.495  -2.761  -2.115  0.00  0.00    +0.000 HD
ATOM     13  N7  UNK     0       5.183   1.410  -0.033  0.00  0.00    +0.000 N 
ATOM     14  H32 UNK     0       6.065   0.943  -0.339  0.00  0.00    +0.000 HD
ATOM     15  H31 UNK     0       5.241   2.333   0.451  0.00  0.00    +0.000 HD
ENDROOT
BRANCH   1  16
ATOM     16  C11 UNK     0      -0.875   1.267   0.367  0.00  0.00    +0.000 C 
ATOM     17  C10 UNK     0      -1.210   0.098   1.316  0.00  0.00    +0.000 C 
ATOM     18  C9  UNK     0      -2.708  -0.345   1.244  0.00  0.00    +0.000 C 
ATOM     19  C12 UNK     0      -3.491   0.273   0.052  0.00  0.00    +0.000 C 
ATOM     20  C15 UNK     0      -2.619   0.458  -1.161  0.00  0.00    +0.000 C 
ATOM     21  C13 UNK     0      -1.387   0.959  -1.018  0.00  0.00    +0.000 C 
BRANCH  18  22
ATOM     22  C14 UNK     0      -2.839  -1.882   1.268  0.00  0.00    +0.000 C 
BRANCH  22  23
ATOM     23  O1  UNK     0      -2.253  -2.461   0.131  0.00  0.00    +0.000 OA
ATOM     24  H30 UNK     0      -2.945  -2.466  -0.580  0.00  0.00    +0.000 HD
ENDBRANCH  22  23
ENDBRANCH  18  22
ENDBRANCH   1  16
TORSDOF 3
