REMARK  Name = C:\Users\Maximilian\Desktop\Conformers\converted_pdb\conformers_pdb\MPLA_conf_17.pdb
REMARK  3 active torsions:
REMARK  status: ('A' for Active; 'I' for Inactive)
REMARK    1  A    between atoms: N2_1  and  C11_10
REMARK    2  A    between atoms: C9_12  and  C14_16
REMARK    3  A    between atoms: C14_16  and  O1_17
REMARK                            x       y       z     vdW  Elec       q    Type
REMARK                         _______ _______ _______ _____ _____    ______ ____
ROOT
ATOM      1  N2  UNK     0       0.182   0.624  -1.342  0.00  0.00    +0.000 N 
ATOM      2  N3  UNK     0       0.550   1.844  -1.733  0.00  0.00    +0.000 NA
ATOM      3  N4  UNK     0       1.761   2.163  -1.273  0.00  0.00    +0.000 NA
ATOM      4  N5  UNK     0       1.333  -1.048   0.013  0.00  0.00    +0.000 NA
ATOM      5  N6  UNK     0       3.475  -0.337   0.768  0.00  0.00    +0.000 NA
ATOM      6  C16 UNK     0       1.209   0.148  -0.612  0.00  0.00    +0.000 A 
ATOM      7  C17 UNK     0       2.169   1.094  -0.568  0.00  0.00    +0.000 A 
ATOM      8  C18 UNK     0       3.344   0.868   0.135  0.00  0.00    +0.000 A 
ATOM      9  C19 UNK     0       2.485  -1.289   0.712  0.00  0.00    +0.000 A 
ATOM     10  N8  UNK     0       2.658  -2.533   1.387  0.00  0.00    +0.000 N 
ATOM     11  H33 UNK     0       1.910  -3.261   1.351  0.00  0.00    +0.000 HD
ATOM     12  H34 UNK     0       3.532  -2.726   1.923  0.00  0.00    +0.000 HD
ATOM     13  N7  UNK     0       4.381   1.846   0.205  0.00  0.00    +0.000 N 
ATOM     14  H32 UNK     0       4.284   2.767  -0.276  0.00  0.00    +0.000 HD
ATOM     15  H31 UNK     0       5.253   1.647   0.743  0.00  0.00    +0.000 HD
ENDROOT
BRANCH   1  16
ATOM     16  C11 UNK     0      -1.103   0.008  -1.713  0.00  0.00    +0.000 C 
ATOM     17  C10 UNK     0      -2.288   0.826  -1.146  0.00  0.00    +0.000 C 
ATOM     18  C9  UNK     0      -2.711   0.395   0.273  0.00  0.00    +0.000 C 
ATOM     19  C12 UNK     0      -3.045  -1.107   0.281  0.00  0.00    +0.000 C 
ATOM     20  C15 UNK     0      -1.987  -1.944  -0.390  0.00  0.00    +0.000 C 
ATOM     21  C13 UNK     0      -1.172  -1.460  -1.342  0.00  0.00    +0.000 C 
BRANCH  18  22
ATOM     22  C14 UNK     0      -1.677   0.748   1.359  0.00  0.00    +0.000 C 
BRANCH  22  23
ATOM     23  O1  UNK     0      -1.344   2.107   1.295  0.00  0.00    +0.000 OA
ATOM     24  H30 UNK     0      -0.641   2.252   1.981  0.00  0.00    +0.000 HD
ENDBRANCH  22  23
ENDBRANCH  18  22
ENDBRANCH   1  16
TORSDOF 3
