REMARK  Name = C:\Users\Maximilian\Desktop\Conformers\converted_pdb\conformers_pdb\MPLA_conf_10.pdb
REMARK  3 active torsions:
REMARK  status: ('A' for Active; 'I' for Inactive)
REMARK    1  A    between atoms: N2_1  and  C11_10
REMARK    2  A    between atoms: C9_12  and  C14_16
REMARK    3  A    between atoms: C14_16  and  O1_17
REMARK                            x       y       z     vdW  Elec       q    Type
REMARK                         _______ _______ _______ _____ _____    ______ ____
ROOT
ATOM      1  N2  UNK     0       0.728   0.408   0.286  0.00  0.00    +0.000 N 
ATOM      2  N3  UNK     0       0.977   1.607   0.811  0.00  0.00    +0.000 NA
ATOM      3  N4  UNK     0       2.235   1.985   0.572  0.00  0.00    +0.000 NA
ATOM      4  N5  UNK     0       2.127  -1.158  -0.934  0.00  0.00    +0.000 NA
ATOM      5  N6  UNK     0       4.347  -0.362  -1.273  0.00  0.00    +0.000 NA
ATOM      6  C16 UNK     0       1.866   0.005  -0.292  0.00  0.00    +0.000 A 
ATOM      7  C17 UNK     0       2.788   0.973  -0.121  0.00  0.00    +0.000 A 
ATOM      8  C18 UNK     0       4.073   0.807  -0.618  0.00  0.00    +0.000 A 
ATOM      9  C19 UNK     0       3.391  -1.338  -1.433  0.00  0.00    +0.000 A 
ATOM     10  N8  UNK     0       3.719  -2.546  -2.115  0.00  0.00    +0.000 N 
ATOM     11  H33 UNK     0       4.681  -2.694  -2.494  0.00  0.00    +0.000 HD
ATOM     12  H34 UNK     0       3.002  -3.296  -2.237  0.00  0.00    +0.000 HD
ATOM     13  N7  UNK     0       5.081   1.804  -0.455  0.00  0.00    +0.000 N 
ATOM     14  H32 UNK     0       4.882   2.691   0.059  0.00  0.00    +0.000 HD
ATOM     15  H31 UNK     0       6.035   1.654  -0.850  0.00  0.00    +0.000 HD
ENDROOT
BRANCH   1  16
ATOM     16  C11 UNK     0      -0.529  -0.331   0.416  0.00  0.00    +0.000 C 
ATOM     17  C10 UNK     0      -1.708   0.528  -0.075  0.00  0.00    +0.000 C 
ATOM     18  C9  UNK     0      -3.043  -0.150   0.281  0.00  0.00    +0.000 C 
ATOM     19  C12 UNK     0      -3.160  -0.284   1.812  0.00  0.00    +0.000 C 
ATOM     20  C15 UNK     0      -1.910  -0.851   2.440  0.00  0.00    +0.000 C 
ATOM     21  C13 UNK     0      -0.707  -0.787   1.846  0.00  0.00    +0.000 C 
BRANCH  18  22
ATOM     22  C14 UNK     0      -4.238   0.634  -0.283  0.00  0.00    +0.000 C 
BRANCH  22  23
ATOM     23  O1  UNK     0      -4.199   0.629  -1.684  0.00  0.00    +0.000 OA
ATOM     24  H30 UNK     0      -5.018   1.102  -1.986  0.00  0.00    +0.000 HD
ENDBRANCH  22  23
ENDBRANCH  18  22
ENDBRANCH   1  16
TORSDOF 3
