REMARK  Name = C:\Users\Maximilian\Desktop\Conformers\converted_pdb\conformers_pdb\MPLA_conf_9.pdb
REMARK  3 active torsions:
REMARK  status: ('A' for Active; 'I' for Inactive)
REMARK    1  A    between atoms: N2_1  and  C11_10
REMARK    2  A    between atoms: C9_12  and  C14_16
REMARK    3  A    between atoms: C14_16  and  O1_17
REMARK                            x       y       z     vdW  Elec       q    Type
REMARK                         _______ _______ _______ _____ _____    ______ ____
ROOT
ATOM      1  N2  UNK     0       0.768  -0.793  -0.118  0.00  0.00    +0.000 N 
ATOM      2  N3  UNK     0       1.105  -1.782   0.710  0.00  0.00    +0.000 NA
ATOM      3  N4  UNK     0       2.353  -1.631   1.158  0.00  0.00    +0.000 NA
ATOM      4  N5  UNK     0       1.962   1.188  -0.856  0.00  0.00    +0.000 NA
ATOM      5  N6  UNK     0       4.164   1.342   0.038  0.00  0.00    +0.000 NA
ATOM      6  C16 UNK     0       1.828   0.022  -0.182  0.00  0.00    +0.000 A 
ATOM      7  C17 UNK     0       2.802  -0.495   0.593  0.00  0.00    +0.000 A 
ATOM      8  C18 UNK     0       4.014   0.167   0.722  0.00  0.00    +0.000 A 
ATOM      9  C19 UNK     0       3.154   1.853  -0.744  0.00  0.00    +0.000 A 
ATOM     10  N8  UNK     0       3.348   3.083  -1.438  0.00  0.00    +0.000 N 
ATOM     11  H33 UNK     0       4.252   3.598  -1.357  0.00  0.00    +0.000 HD
ATOM     12  H34 UNK     0       2.587   3.480  -2.032  0.00  0.00    +0.000 HD
ATOM     13  N7  UNK     0       5.070  -0.342   1.537  0.00  0.00    +0.000 N 
ATOM     14  H32 UNK     0       4.958  -1.238   2.062  0.00  0.00    +0.000 HD
ATOM     15  H31 UNK     0       5.970   0.180   1.616  0.00  0.00    +0.000 HD
ENDROOT
BRANCH   1  16
ATOM     16  C11 UNK     0      -0.553  -0.598  -0.714  0.00  0.00    +0.000 C 
ATOM     17  C10 UNK     0      -1.509   0.012   0.325  0.00  0.00    +0.000 C 
ATOM     18  C9  UNK     0      -2.956  -0.012  -0.196  0.00  0.00    +0.000 C 
ATOM     19  C12 UNK     0      -3.388  -1.471  -0.444  0.00  0.00    +0.000 C 
ATOM     20  C15 UNK     0      -2.366  -2.250  -1.232  0.00  0.00    +0.000 C 
ATOM     21  C13 UNK     0      -1.069  -1.905  -1.277  0.00  0.00    +0.000 C 
BRANCH  18  22
ATOM     22  C14 UNK     0      -3.921   0.672   0.788  0.00  0.00    +0.000 C 
BRANCH  22  23
ATOM     23  O1  UNK     0      -3.653   2.047   0.868  0.00  0.00    +0.000 OA
ATOM     24  H30 UNK     0      -3.040   2.179   1.636  0.00  0.00    +0.000 HD
ENDBRANCH  22  23
ENDBRANCH  18  22
ENDBRANCH   1  16
TORSDOF 3
