REMARK  Name = C:\Users\Maximilian\Desktop\Conformers\converted_pdb\conformers_pdb\MPLA_conf_11.pdb
REMARK  3 active torsions:
REMARK  status: ('A' for Active; 'I' for Inactive)
REMARK    1  A    between atoms: N2_1  and  C11_10
REMARK    2  A    between atoms: C9_12  and  C14_16
REMARK    3  A    between atoms: C14_16  and  O1_17
REMARK                            x       y       z     vdW  Elec       q    Type
REMARK                         _______ _______ _______ _____ _____    ______ ____
ROOT
ATOM      1  N2  UNK     0       0.297   0.631   0.609  0.00  0.00    +0.000 N 
ATOM      2  N3  UNK     0       0.156   1.847   0.081  0.00  0.00    +0.000 NA
ATOM      3  N4  UNK     0       1.261   2.225  -0.566  0.00  0.00    +0.000 NA
ATOM      4  N5  UNK     0       2.149  -0.940   0.599  0.00  0.00    +0.000 NA
ATOM      5  N6  UNK     0       4.051  -0.139  -0.589  0.00  0.00    +0.000 NA
ATOM      6  C16 UNK     0       1.532   0.226   0.289  0.00  0.00    +0.000 A 
ATOM      7  C17 UNK     0       2.122   1.199  -0.431  0.00  0.00    +0.000 A 
ATOM      8  C18 UNK     0       3.420   1.035  -0.895  0.00  0.00    +0.000 A 
ATOM      9  C19 UNK     0       3.430  -1.119   0.149  0.00  0.00    +0.000 A 
ATOM     10  N8  UNK     0       4.122  -2.329   0.446  0.00  0.00    +0.000 N 
ATOM     11  H33 UNK     0       3.660  -3.079   1.007  0.00  0.00    +0.000 HD
ATOM     12  H34 UNK     0       5.097  -2.478   0.104  0.00  0.00    +0.000 HD
ATOM     13  N7  UNK     0       4.081   2.042  -1.661  0.00  0.00    +0.000 N 
ATOM     14  H32 UNK     0       5.057   1.889  -1.997  0.00  0.00    +0.000 HD
ATOM     15  H31 UNK     0       3.603   2.941  -1.892  0.00  0.00    +0.000 HD
ENDROOT
BRANCH   1  16
ATOM     16  C11 UNK     0      -0.714  -0.101   1.382  0.00  0.00    +0.000 C 
ATOM     17  C10 UNK     0      -1.274  -1.294   0.570  0.00  0.00    +0.000 C 
ATOM     18  C9  UNK     0      -2.498  -0.933  -0.295  0.00  0.00    +0.000 C 
ATOM     19  C12 UNK     0      -3.593  -0.319   0.596  0.00  0.00    +0.000 C 
ATOM     20  C15 UNK     0      -3.069   0.787   1.473  0.00  0.00    +0.000 C 
ATOM     21  C13 UNK     0      -1.792   0.840   1.884  0.00  0.00    +0.000 C 
BRANCH  18  22
ATOM     22  C14 UNK     0      -2.133  -0.023  -1.486  0.00  0.00    +0.000 C 
BRANCH  22  23
ATOM     23  O1  UNK     0      -3.139  -0.071  -2.464  0.00  0.00    +0.000 OA
ATOM     24  H30 UNK     0      -3.786   0.650  -2.252  0.00  0.00    +0.000 HD
ENDBRANCH  22  23
ENDBRANCH  18  22
ENDBRANCH   1  16
TORSDOF 3
