REMARK  Name = C:\Users\Maximilian\Desktop\Conformers\converted_pdb\conformers_pdb\MPLA_conf_18.pdb
REMARK  3 active torsions:
REMARK  status: ('A' for Active; 'I' for Inactive)
REMARK    1  A    between atoms: N2_1  and  C11_10
REMARK    2  A    between atoms: C9_12  and  C14_16
REMARK    3  A    between atoms: C14_16  and  O1_17
REMARK                            x       y       z     vdW  Elec       q    Type
REMARK                         _______ _______ _______ _____ _____    ______ ____
ROOT
ATOM      1  N2  UNK     0       0.679   0.678   0.080  0.00  0.00    +0.000 N 
ATOM      2  N3  UNK     0       0.897   1.917  -0.362  0.00  0.00    +0.000 NA
ATOM      3  N4  UNK     0       2.193   2.120  -0.607  0.00  0.00    +0.000 NA
ATOM      4  N5  UNK     0       2.166  -1.207   0.437  0.00  0.00    +0.000 NA
ATOM      5  N6  UNK     0       4.442  -0.711  -0.059  0.00  0.00    +0.000 NA
ATOM      6  C16 UNK     0       1.871   0.070   0.099  0.00  0.00    +0.000 A 
ATOM      7  C17 UNK     0       2.800   0.954  -0.315  0.00  0.00    +0.000 A 
ATOM      8  C18 UNK     0       4.131   0.575  -0.405  0.00  0.00    +0.000 A 
ATOM      9  C19 UNK     0       3.477  -1.598   0.357  0.00  0.00    +0.000 A 
ATOM     10  N8  UNK     0       3.841  -2.931   0.705  0.00  0.00    +0.000 N 
ATOM     11  H33 UNK     0       3.116  -3.612   1.022  0.00  0.00    +0.000 HD
ATOM     12  H34 UNK     0       4.837  -3.239   0.647  0.00  0.00    +0.000 HD
ATOM     13  N7  UNK     0       5.146   1.479  -0.843  0.00  0.00    +0.000 N 
ATOM     14  H32 UNK     0       6.139   1.163  -0.902  0.00  0.00    +0.000 HD
ATOM     15  H31 UNK     0       4.911   2.461  -1.109  0.00  0.00    +0.000 HD
ENDROOT
BRANCH   1  16
ATOM     16  C11 UNK     0      -0.633   0.096   0.369  0.00  0.00    +0.000 C 
ATOM     17  C10 UNK     0      -1.397  -0.169  -0.943  0.00  0.00    +0.000 C 
ATOM     18  C9  UNK     0      -2.870  -0.638  -0.708  0.00  0.00    +0.000 C 
ATOM     19  C12 UNK     0      -3.375  -0.424   0.747  0.00  0.00    +0.000 C 
ATOM     20  C15 UNK     0      -2.756   0.788   1.391  0.00  0.00    +0.000 C 
ATOM     21  C13 UNK     0      -1.446   1.020   1.240  0.00  0.00    +0.000 C 
BRANCH  18  22
ATOM     22  C14 UNK     0      -3.827  -0.004  -1.738  0.00  0.00    +0.000 C 
BRANCH  22  23
ATOM     23  O1  UNK     0      -3.887   1.390  -1.588  0.00  0.00    +0.000 OA
ATOM     24  H30 UNK     0      -4.580   1.577  -0.902  0.00  0.00    +0.000 HD
ENDBRANCH  22  23
ENDBRANCH  18  22
ENDBRANCH   1  16
TORSDOF 3
