REMARK  Name = C:\Users\Maximilian\Desktop\Conformers\converted_pdb\conformers_pdb\MPLA_conf_24.pdb
REMARK  3 active torsions:
REMARK  status: ('A' for Active; 'I' for Inactive)
REMARK    1  A    between atoms: N2_1  and  C11_10
REMARK    2  A    between atoms: C9_12  and  C14_16
REMARK    3  A    between atoms: C14_16  and  O1_17
REMARK                            x       y       z     vdW  Elec       q    Type
REMARK                         _______ _______ _______ _____ _____    ______ ____
ROOT
ATOM      1  N2  UNK     0       0.251  -0.655   0.666  0.00  0.00    +0.000 N 
ATOM      2  N3  UNK     0       0.072  -0.178   1.898  0.00  0.00    +0.000 NA
ATOM      3  N4  UNK     0       1.164   0.453   2.336  0.00  0.00    +0.000 NA
ATOM      4  N5  UNK     0       2.154  -0.587  -0.840  0.00  0.00    +0.000 NA
ATOM      5  N6  UNK     0       4.030   0.565   0.068  0.00  0.00    +0.000 NA
ATOM      6  C16 UNK     0       1.499  -0.320   0.314  0.00  0.00    +0.000 A 
ATOM      7  C17 UNK     0       2.057   0.359   1.335  0.00  0.00    +0.000 A 
ATOM      8  C18 UNK     0       3.360   0.826   1.232  0.00  0.00    +0.000 A 
ATOM      9  C19 UNK     0       3.441  -0.133  -0.960  0.00  0.00    +0.000 A 
ATOM     10  N8  UNK     0       4.174  -0.386  -2.156  0.00  0.00    +0.000 N 
ATOM     11  H33 UNK     0       3.735  -0.914  -2.943  0.00  0.00    +0.000 HD
ATOM     12  H34 UNK     0       5.156  -0.046  -2.256  0.00  0.00    +0.000 HD
ATOM     13  N7  UNK     0       3.988   1.551   2.289  0.00  0.00    +0.000 N 
ATOM     14  H32 UNK     0       3.479   1.750   3.179  0.00  0.00    +0.000 HD
ATOM     15  H31 UNK     0       4.970   1.889   2.182  0.00  0.00    +0.000 HD
ENDROOT
BRANCH   1  16
ATOM     16  C11 UNK     0      -0.733  -1.403  -0.126  0.00  0.00    +0.000 C 
ATOM     17  C10 UNK     0      -1.244  -0.556  -1.316  0.00  0.00    +0.000 C 
ATOM     18  C9  UNK     0      -2.474   0.308  -0.978  0.00  0.00    +0.000 C 
ATOM     19  C12 UNK     0      -3.599  -0.582  -0.420  0.00  0.00    +0.000 C 
ATOM     20  C15 UNK     0      -3.120  -1.502   0.673  0.00  0.00    +0.000 C 
ATOM     21  C13 UNK     0      -1.849  -1.926   0.757  0.00  0.00    +0.000 C 
BRANCH  18  22
ATOM     22  C14 UNK     0      -2.135   1.477  -0.029  0.00  0.00    +0.000 C 
BRANCH  22  23
ATOM     23  O1  UNK     0      -3.183   2.409  -0.002  0.00  0.00    +0.000 OA
ATOM     24  H30 UNK     0      -3.118   2.936  -0.841  0.00  0.00    +0.000 HD
ENDBRANCH  22  23
ENDBRANCH  18  22
ENDBRANCH   1  16
TORSDOF 3
