REMARK  Name = C:\Users\Maximilian\Desktop\Conformers\converted_pdb\conformers_pdb\MPLA_conf_1.pdb
REMARK  3 active torsions:
REMARK  status: ('A' for Active; 'I' for Inactive)
REMARK    1  A    between atoms: N2_1  and  C11_10
REMARK    2  A    between atoms: C9_12  and  C14_16
REMARK    3  A    between atoms: C14_16  and  O1_17
REMARK                            x       y       z     vdW  Elec       q    Type
REMARK                         _______ _______ _______ _____ _____    ______ ____
ROOT
ATOM      1  N2  UNK     0       0.763   0.718   0.428  0.00  0.00    +0.000 N 
ATOM      2  N3  UNK     0       1.196   1.915   0.033  0.00  0.00    +0.000 NA
ATOM      3  N4  UNK     0       2.517   1.911  -0.158  0.00  0.00    +0.000 NA
ATOM      4  N5  UNK     0       1.909  -1.394   0.772  0.00  0.00    +0.000 NA
ATOM      5  N6  UNK     0       4.253  -1.263   0.373  0.00  0.00    +0.000 NA
ATOM      6  C16 UNK     0       1.839  -0.076   0.470  0.00  0.00    +0.000 A 
ATOM      7  C17 UNK     0       2.915   0.655   0.119  0.00  0.00    +0.000 A 
ATOM      8  C18 UNK     0       4.170   0.066   0.062  0.00  0.00    +0.000 A 
ATOM      9  C19 UNK     0       3.141  -1.992   0.724  0.00  0.00    +0.000 A 
ATOM     10  N8  UNK     0       3.270  -3.376   1.038  0.00  0.00    +0.000 N 
ATOM     11  H33 UNK     0       2.431  -3.938   1.304  0.00  0.00    +0.000 HD
ATOM     12  H34 UNK     0       4.204  -3.841   1.003  0.00  0.00    +0.000 HD
ATOM     13  N7  UNK     0       5.334   0.803  -0.311  0.00  0.00    +0.000 N 
ATOM     14  H32 UNK     0       6.264   0.331  -0.347  0.00  0.00    +0.000 HD
ATOM     15  H31 UNK     0       5.273   1.818  -0.550  0.00  0.00    +0.000 HD
ENDROOT
BRANCH   1  16
ATOM     16  C11 UNK     0      -0.637   0.349   0.638  0.00  0.00    +0.000 C 
ATOM     17  C10 UNK     0      -1.318   0.100  -0.719  0.00  0.00    +0.000 C 
ATOM     18  C9  UNK     0      -2.838  -0.043  -0.536  0.00  0.00    +0.000 C 
ATOM     19  C12 UNK     0      -3.412   1.262   0.051  0.00  0.00    +0.000 C 
ATOM     20  C15 UNK     0      -2.622   1.757   1.237  0.00  0.00    +0.000 C 
ATOM     21  C13 UNK     0      -1.341   1.413   1.450  0.00  0.00    +0.000 C 
BRANCH  18  22
ATOM     22  C14 UNK     0      -3.512  -0.394  -1.875  0.00  0.00    +0.000 C 
BRANCH  22  23
ATOM     23  O1  UNK     0      -4.892  -0.578  -1.705  0.00  0.00    +0.000 OA
ATOM     24  H30 UNK     0      -5.008  -1.457  -1.259  0.00  0.00    +0.000 HD
ENDBRANCH  22  23
ENDBRANCH  18  22
ENDBRANCH   1  16
TORSDOF 3
