REMARK  Name = C:\Users\Maximilian\Desktop\Conformers\converted_pdb\conformers_pdb\MPLA_conf_25.pdb
REMARK  3 active torsions:
REMARK  status: ('A' for Active; 'I' for Inactive)
REMARK    1  A    between atoms: N2_1  and  C11_10
REMARK    2  A    between atoms: C9_12  and  C14_16
REMARK    3  A    between atoms: C14_16  and  O1_17
REMARK                            x       y       z     vdW  Elec       q    Type
REMARK                         _______ _______ _______ _____ _____    ______ ____
ROOT
ATOM      1  N2  UNK     0       0.772  -1.427  -0.455  0.00  0.00    +0.000 N 
ATOM      2  N3  UNK     0       1.399  -2.293  -1.249  0.00  0.00    +0.000 NA
ATOM      3  N4  UNK     0       2.668  -1.931  -1.451  0.00  0.00    +0.000 NA
ATOM      4  N5  UNK     0       1.506   0.631   0.610  0.00  0.00    +0.000 NA
ATOM      5  N6  UNK     0       3.783   1.160   0.155  0.00  0.00    +0.000 NA
ATOM      6  C16 UNK     0       1.668  -0.478  -0.151  0.00  0.00    +0.000 A 
ATOM      7  C17 UNK     0       2.830  -0.788  -0.758  0.00  0.00    +0.000 A 
ATOM      8  C18 UNK     0       3.934   0.040  -0.615  0.00  0.00    +0.000 A 
ATOM      9  C19 UNK     0       2.586   1.459   0.763  0.00  0.00    +0.000 A 
ATOM     10  N8  UNK     0       2.468   2.637   1.557  0.00  0.00    +0.000 N 
ATOM     11  H33 UNK     0       1.563   2.872   2.022  0.00  0.00    +0.000 HD
ATOM     12  H34 UNK     0       3.285   3.276   1.679  0.00  0.00    +0.000 HD
ATOM     13  N7  UNK     0       5.183  -0.251  -1.243  0.00  0.00    +0.000 N 
ATOM     14  H32 UNK     0       5.995   0.392  -1.118  0.00  0.00    +0.000 HD
ATOM     15  H31 UNK     0       5.301  -1.105  -1.832  0.00  0.00    +0.000 HD
ENDROOT
BRANCH   1  16
ATOM     16  C11 UNK     0      -0.641  -1.510  -0.080  0.00  0.00    +0.000 C 
ATOM     17  C10 UNK     0      -1.454  -0.446  -0.840  0.00  0.00    +0.000 C 
ATOM     18  C9  UNK     0      -2.877  -0.350  -0.262  0.00  0.00    +0.000 C 
ATOM     19  C12 UNK     0      -2.811   0.070   1.219  0.00  0.00    +0.000 C 
ATOM     20  C15 UNK     0      -1.823  -0.759   2.002  0.00  0.00    +0.000 C 
ATOM     21  C13 UNK     0      -0.794  -1.399   1.422  0.00  0.00    +0.000 C 
BRANCH  18  22
ATOM     22  C14 UNK     0      -3.755   0.612  -1.080  0.00  0.00    +0.000 C 
BRANCH  22  23
ATOM     23  O1  UNK     0      -3.209   1.904  -1.086  0.00  0.00    +0.000 OA
ATOM     24  H30 UNK     0      -3.826   2.461  -1.628  0.00  0.00    +0.000 HD
ENDBRANCH  22  23
ENDBRANCH  18  22
ENDBRANCH   1  16
TORSDOF 3
