REMARK  Name = C:\Users\Maximilian\Desktop\Conformers\converted_pdb\conformers_pdb\MPLA_conf_4.pdb
REMARK  3 active torsions:
REMARK  status: ('A' for Active; 'I' for Inactive)
REMARK    1  A    between atoms: N2_1  and  C11_10
REMARK    2  A    between atoms: C9_12  and  C14_16
REMARK    3  A    between atoms: C14_16  and  O1_17
REMARK                            x       y       z     vdW  Elec       q    Type
REMARK                         _______ _______ _______ _____ _____    ______ ____
ROOT
ATOM      1  N2  UNK     0       0.697  -0.468  -0.744  0.00  0.00    +0.000 N 
ATOM      2  N3  UNK     0       0.836  -1.759  -1.041  0.00  0.00    +0.000 NA
ATOM      3  N4  UNK     0       2.042  -2.208  -0.686  0.00  0.00    +0.000 NA
ATOM      4  N5  UNK     0       2.171   1.118   0.353  0.00  0.00    +0.000 NA
ATOM      5  N6  UNK     0       4.276   0.179   0.953  0.00  0.00    +0.000 NA
ATOM      6  C16 UNK     0       1.842  -0.089  -0.164  0.00  0.00    +0.000 A 
ATOM      7  C17 UNK     0       2.669  -1.152  -0.135  0.00  0.00    +0.000 A 
ATOM      8  C18 UNK     0       3.929  -1.038   0.434  0.00  0.00    +0.000 A 
ATOM      9  C19 UNK     0       3.413   1.249   0.916  0.00  0.00    +0.000 A 
ATOM     10  N8  UNK     0       3.812   2.500   1.471  0.00  0.00    +0.000 N 
ATOM     11  H33 UNK     0       4.756   2.610   1.904  0.00  0.00    +0.000 HD
ATOM     12  H34 UNK     0       3.163   3.318   1.450  0.00  0.00    +0.000 HD
ATOM     13  N7  UNK     0       4.834  -2.141   0.490  0.00  0.00    +0.000 N 
ATOM     14  H32 UNK     0       5.775  -2.025   0.928  0.00  0.00    +0.000 HD
ATOM     15  H31 UNK     0       4.572  -3.072   0.097  0.00  0.00    +0.000 HD
ENDROOT
BRANCH   1  16
ATOM     16  C11 UNK     0      -0.529   0.314  -0.911  0.00  0.00    +0.000 C 
ATOM     17  C10 UNK     0      -1.510  -0.006   0.229  0.00  0.00    +0.000 C 
ATOM     18  C9  UNK     0      -2.889   0.608  -0.069  0.00  0.00    +0.000 C 
ATOM     19  C12 UNK     0      -3.460   0.002  -1.365  0.00  0.00    +0.000 C 
ATOM     20  C15 UNK     0      -2.455   0.008  -2.490  0.00  0.00    +0.000 C 
ATOM     21  C13 UNK     0      -1.128   0.058  -2.278  0.00  0.00    +0.000 C 
BRANCH  18  22
ATOM     22  C14 UNK     0      -3.860   0.435   1.113  0.00  0.00    +0.000 C 
BRANCH  22  23
ATOM     23  O1  UNK     0      -4.103  -0.920   1.385  0.00  0.00    +0.000 OA
ATOM     24  H30 UNK     0      -3.410  -1.213   2.033  0.00  0.00    +0.000 HD
ENDBRANCH  22  23
ENDBRANCH  18  22
ENDBRANCH   1  16
TORSDOF 3
