REMARK  Name = C:\Users\Maximilian\Desktop\Conformers\converted_pdb\conformers_pdb\MPLA_conf_7.pdb
REMARK  3 active torsions:
REMARK  status: ('A' for Active; 'I' for Inactive)
REMARK    1  A    between atoms: N2_1  and  C11_10
REMARK    2  A    between atoms: C9_12  and  C14_16
REMARK    3  A    between atoms: C14_16  and  O1_17
REMARK                            x       y       z     vdW  Elec       q    Type
REMARK                         _______ _______ _______ _____ _____    ______ ____
ROOT
ATOM      1  N2  UNK     0       0.726  -0.212  -0.768  0.00  0.00    +0.000 N 
ATOM      2  N3  UNK     0       0.900  -1.212  -1.630  0.00  0.00    +0.000 NA
ATOM      3  N4  UNK     0       2.164  -1.644  -1.618  0.00  0.00    +0.000 NA
ATOM      4  N5  UNK     0       2.234   0.870   0.798  0.00  0.00    +0.000 NA
ATOM      5  N6  UNK     0       4.445  -0.011   0.728  0.00  0.00    +0.000 NA
ATOM      6  C16 UNK     0       1.910  -0.012  -0.177  0.00  0.00    +0.000 A 
ATOM      7  C17 UNK     0       2.792  -0.884  -0.702  0.00  0.00    +0.000 A 
ATOM      8  C18 UNK     0       4.105  -0.903  -0.252  0.00  0.00    +0.000 A 
ATOM      9  C19 UNK     0       3.526   0.868   1.252  0.00  0.00    +0.000 A 
ATOM     10  N8  UNK     0       3.920   1.779   2.274  0.00  0.00    +0.000 N 
ATOM     11  H33 UNK     0       4.902   1.785   2.627  0.00  0.00    +0.000 HD
ATOM     12  H34 UNK     0       3.229   2.450   2.679  0.00  0.00    +0.000 HD
ATOM     13  N7  UNK     0       5.070  -1.813  -0.778  0.00  0.00    +0.000 N 
ATOM     14  H32 UNK     0       4.813  -2.496  -1.525  0.00  0.00    +0.000 HD
ATOM     15  H31 UNK     0       6.050  -1.805  -0.417  0.00  0.00    +0.000 HD
ENDROOT
BRANCH   1  16
ATOM     16  C11 UNK     0      -0.550   0.442  -0.470  0.00  0.00    +0.000 C 
ATOM     17  C10 UNK     0      -1.458  -0.506   0.336  0.00  0.00    +0.000 C 
ATOM     18  C9  UNK     0      -2.889   0.074   0.573  0.00  0.00    +0.000 C 
ATOM     19  C12 UNK     0      -3.235   1.279  -0.350  0.00  0.00    +0.000 C 
ATOM     20  C15 UNK     0      -2.545   1.194  -1.685  0.00  0.00    +0.000 C 
ATOM     21  C13 UNK     0      -1.257   0.836  -1.742  0.00  0.00    +0.000 C 
BRANCH  18  22
ATOM     22  C14 UNK     0      -3.947  -1.043   0.453  0.00  0.00    +0.000 C 
BRANCH  22  23
ATOM     23  O1  UNK     0      -5.205  -0.591   0.877  0.00  0.00    +0.000 OA
ATOM     24  H30 UNK     0      -5.175  -0.555   1.869  0.00  0.00    +0.000 HD
ENDBRANCH  22  23
ENDBRANCH  18  22
ENDBRANCH   1  16
TORSDOF 3
