REMARK  Name = C:\Users\Maximilian\Desktop\Conformers\converted_pdb\conformers_pdb\MPLA_conf_26.pdb
REMARK  3 active torsions:
REMARK  status: ('A' for Active; 'I' for Inactive)
REMARK    1  A    between atoms: N2_1  and  C11_10
REMARK    2  A    between atoms: C9_12  and  C14_16
REMARK    3  A    between atoms: C14_16  and  O1_17
REMARK                            x       y       z     vdW  Elec       q    Type
REMARK                         _______ _______ _______ _____ _____    ______ ____
ROOT
ATOM      1  N2  UNK     0       0.737  -0.845  -0.119  0.00  0.00    +0.000 N 
ATOM      2  N3  UNK     0       1.144  -1.821   0.692  0.00  0.00    +0.000 NA
ATOM      3  N4  UNK     0       2.452  -1.725   0.942  0.00  0.00    +0.000 NA
ATOM      4  N5  UNK     0       1.902   1.038  -1.114  0.00  0.00    +0.000 NA
ATOM      5  N6  UNK     0       4.219   1.100  -0.565  0.00  0.00    +0.000 NA
ATOM      6  C16 UNK     0       1.814  -0.094  -0.376  0.00  0.00    +0.000 A 
ATOM      7  C17 UNK     0       2.866  -0.636   0.267  0.00  0.00    +0.000 A 
ATOM      8  C18 UNK     0       4.116  -0.040   0.185  0.00  0.00    +0.000 A 
ATOM      9  C19 UNK     0       3.130   1.638  -1.209  0.00  0.00    +0.000 A 
ATOM     10  N8  UNK     0       3.278   2.830  -1.978  0.00  0.00    +0.000 N 
ATOM     11  H33 UNK     0       2.457   3.247  -2.470  0.00  0.00    +0.000 HD
ATOM     12  H34 UNK     0       4.209   3.296  -2.056  0.00  0.00    +0.000 HD
ATOM     13  N7  UNK     0       5.256  -0.578   0.855  0.00  0.00    +0.000 N 
ATOM     14  H32 UNK     0       6.183  -0.104   0.776  0.00  0.00    +0.000 HD
ATOM     15  H31 UNK     0       5.180  -1.447   1.429  0.00  0.00    +0.000 HD
ENDROOT
BRANCH   1  16
ATOM     16  C11 UNK     0      -0.649  -0.598  -0.521  0.00  0.00    +0.000 C 
ATOM     17  C10 UNK     0      -1.405   0.099   0.622  0.00  0.00    +0.000 C 
ATOM     18  C9  UNK     0      -2.914   0.138   0.320  0.00  0.00    +0.000 C 
ATOM     19  C12 UNK     0      -3.451  -1.301   0.205  0.00  0.00    +0.000 C 
ATOM     20  C15 UNK     0      -2.599  -2.164  -0.692  0.00  0.00    +0.000 C 
ATOM     21  C13 UNK     0      -1.308  -1.893  -0.944  0.00  0.00    +0.000 C 
BRANCH  18  22
ATOM     22  C14 UNK     0      -3.681   0.912   1.407  0.00  0.00    +0.000 C 
BRANCH  22  23
ATOM     23  O1  UNK     0      -3.277   2.255   1.443  0.00  0.00    +0.000 OA
ATOM     24  H30 UNK     0      -3.685   2.696   0.652  0.00  0.00    +0.000 HD
ENDBRANCH  22  23
ENDBRANCH  18  22
ENDBRANCH   1  16
TORSDOF 3
