REMARK  Name = C:\Users\Maximilian\Desktop\Conformers\converted_pdb\conformers_pdb\MPLA_conf_27.pdb
REMARK  3 active torsions:
REMARK  status: ('A' for Active; 'I' for Inactive)
REMARK    1  A    between atoms: N2_1  and  C11_10
REMARK    2  A    between atoms: C9_12  and  C14_16
REMARK    3  A    between atoms: C14_16  and  O1_17
REMARK                            x       y       z     vdW  Elec       q    Type
REMARK                         _______ _______ _______ _____ _____    ______ ____
ROOT
ATOM      1  N2  UNK     0      -0.759   0.015   0.543  0.00  0.00    +0.000 N 
ATOM      2  N3  UNK     0      -1.766  -0.837   0.732  0.00  0.00    +0.000 NA
ATOM      3  N4  UNK     0      -2.939  -0.200   0.747  0.00  0.00    +0.000 NA
ATOM      4  N5  UNK     0      -0.699   2.424   0.244  0.00  0.00    +0.000 NA
ATOM      5  N6  UNK     0      -2.858   3.428   0.298  0.00  0.00    +0.000 NA
ATOM      6  C16 UNK     0      -1.308   1.231   0.435  0.00  0.00    +0.000 A 
ATOM      7  C17 UNK     0      -2.643   1.099   0.559  0.00  0.00    +0.000 A 
ATOM      8  C18 UNK     0      -3.463   2.217   0.492  0.00  0.00    +0.000 A 
ATOM      9  C19 UNK     0      -1.492   3.539   0.175  0.00  0.00    +0.000 A 
ATOM     10  N8  UNK     0      -0.900   4.819  -0.027  0.00  0.00    +0.000 N 
ATOM     11  H33 UNK     0       0.136   4.914  -0.116  0.00  0.00    +0.000 HD
ATOM     12  H34 UNK     0      -1.496   5.673  -0.094  0.00  0.00    +0.000 HD
ATOM     13  N7  UNK     0      -4.881   2.121   0.619  0.00  0.00    +0.000 N 
ATOM     14  H32 UNK     0      -5.346   1.198   0.762  0.00  0.00    +0.000 HD
ATOM     15  H31 UNK     0      -5.471   2.981   0.568  0.00  0.00    +0.000 HD
ENDROOT
BRANCH   1  16
ATOM     16  C11 UNK     0       0.656  -0.348   0.466  0.00  0.00    +0.000 C 
ATOM     17  C10 UNK     0       0.906  -1.231  -0.770  0.00  0.00    +0.000 C 
ATOM     18  C9  UNK     0       2.330  -1.815  -0.730  0.00  0.00    +0.000 C 
ATOM     19  C12 UNK     0       2.494  -2.691   0.528  0.00  0.00    +0.000 C 
ATOM     20  C15 UNK     0       1.987  -2.015   1.778  0.00  0.00    +0.000 C 
ATOM     21  C13 UNK     0       1.085  -1.021   1.750  0.00  0.00    +0.000 C 
BRANCH  18  22
ATOM     22  C14 UNK     0       2.638  -2.636  -1.995  0.00  0.00    +0.000 C 
BRANCH  22  23
ATOM     23  O1  UNK     0       2.695  -1.804  -3.125  0.00  0.00    +0.000 OA
ATOM     24  H30 UNK     0       1.789  -1.802  -3.529  0.00  0.00    +0.000 HD
ENDBRANCH  22  23
ENDBRANCH  18  22
ENDBRANCH   1  16
TORSDOF 3
