REMARK  Name = C:\Users\Maximilian\Desktop\Conformers\converted_pdb\conformers_pdb\MPLA_conf_12.pdb
REMARK  3 active torsions:
REMARK  status: ('A' for Active; 'I' for Inactive)
REMARK    1  A    between atoms: N2_1  and  C11_10
REMARK    2  A    between atoms: C9_12  and  C14_16
REMARK    3  A    between atoms: C14_16  and  O1_17
REMARK                            x       y       z     vdW  Elec       q    Type
REMARK                         _______ _______ _______ _____ _____    ______ ____
ROOT
ATOM      1  N2  UNK     0       0.587  -1.540  -0.365  0.00  0.00    +0.000 N 
ATOM      2  N3  UNK     0       1.115  -2.528  -1.084  0.00  0.00    +0.000 NA
ATOM      3  N4  UNK     0       2.424  -2.341  -1.274  0.00  0.00    +0.000 NA
ATOM      4  N5  UNK     0       1.553   0.476   0.588  0.00  0.00    +0.000 NA
ATOM      5  N6  UNK     0       3.887   0.687   0.163  0.00  0.00    +0.000 NA
ATOM      6  C16 UNK     0       1.589  -0.692  -0.097  0.00  0.00    +0.000 A 
ATOM      7  C17 UNK     0       2.714  -1.184  -0.650  0.00  0.00    +0.000 A 
ATOM      8  C18 UNK     0       3.911  -0.492  -0.529  0.00  0.00    +0.000 A 
ATOM      9  C19 UNK     0       2.725   1.172   0.718  0.00  0.00    +0.000 A 
ATOM     10  N8  UNK     0       2.741   2.406   1.431  0.00  0.00    +0.000 N 
ATOM     11  H33 UNK     0       3.630   2.945   1.536  0.00  0.00    +0.000 HD
ATOM     12  H34 UNK     0       1.864   2.782   1.855  0.00  0.00    +0.000 HD
ATOM     13  N7  UNK     0       5.125  -0.977  -1.103  0.00  0.00    +0.000 N 
ATOM     14  H32 UNK     0       6.009  -0.433  -0.996  0.00  0.00    +0.000 HD
ATOM     15  H31 UNK     0       5.146  -1.877  -1.633  0.00  0.00    +0.000 HD
ENDROOT
BRANCH   1  16
ATOM     16  C11 UNK     0      -0.832  -1.421  -0.024  0.00  0.00    +0.000 C 
ATOM     17  C10 UNK     0      -1.491  -0.317  -0.873  0.00  0.00    +0.000 C 
ATOM     18  C9  UNK     0      -2.896   0.002  -0.335  0.00  0.00    +0.000 C 
ATOM     19  C12 UNK     0      -2.792   0.515   1.114  0.00  0.00    +0.000 C 
ATOM     20  C15 UNK     0      -1.944  -0.387   1.974  0.00  0.00    +0.000 C 
ATOM     21  C13 UNK     0      -0.999  -1.195   1.464  0.00  0.00    +0.000 C 
BRANCH  18  22
ATOM     22  C14 UNK     0      -3.637   1.001  -1.242  0.00  0.00    +0.000 C 
BRANCH  22  23
ATOM     23  O1  UNK     0      -2.919   2.200  -1.381  0.00  0.00    +0.000 OA
ATOM     24  H30 UNK     0      -3.258   2.824  -0.688  0.00  0.00    +0.000 HD
ENDBRANCH  22  23
ENDBRANCH  18  22
ENDBRANCH   1  16
TORSDOF 3
