REMARK  Name = C:\Users\Maximilian\Desktop\Conformers\converted_pdb\conformers_pdb\MPLA_conf_14.pdb
REMARK  3 active torsions:
REMARK  status: ('A' for Active; 'I' for Inactive)
REMARK    1  A    between atoms: N2_1  and  C11_10
REMARK    2  A    between atoms: C9_12  and  C14_16
REMARK    3  A    between atoms: C14_16  and  O1_17
REMARK                            x       y       z     vdW  Elec       q    Type
REMARK                         _______ _______ _______ _____ _____    ______ ____
ROOT
ATOM      1  N2  UNK     0       0.224  -1.029  -0.474  0.00  0.00    +0.000 N 
ATOM      2  N3  UNK     0       0.296  -1.981   0.456  0.00  0.00    +0.000 NA
ATOM      3  N4  UNK     0       1.433  -1.896   1.150  0.00  0.00    +0.000 NA
ATOM      4  N5  UNK     0       1.758   0.745  -1.103  0.00  0.00    +0.000 NA
ATOM      5  N6  UNK     0       3.741   0.781   0.215  0.00  0.00    +0.000 NA
ATOM      6  C16 UNK     0       1.355  -0.321  -0.371  0.00  0.00    +0.000 A 
ATOM      7  C17 UNK     0       2.094  -0.848   0.625  0.00  0.00    +0.000 A 
ATOM      8  C18 UNK     0       3.326  -0.298   0.946  0.00  0.00    +0.000 A 
ATOM      9  C19 UNK     0       2.972   1.302  -0.799  0.00  0.00    +0.000 A 
ATOM     10  N8  UNK     0       3.440   2.428  -1.538  0.00  0.00    +0.000 N 
ATOM     11  H33 UNK     0       2.863   2.831  -2.309  0.00  0.00    +0.000 HD
ATOM     12  H34 UNK     0       4.364   2.859  -1.314  0.00  0.00    +0.000 HD
ATOM     13  N7  UNK     0       4.139  -0.826   1.994  0.00  0.00    +0.000 N 
ATOM     14  H32 UNK     0       5.062  -0.390   2.212  0.00  0.00    +0.000 HD
ATOM     15  H31 UNK     0       3.825  -1.650   2.554  0.00  0.00    +0.000 HD
ENDROOT
BRANCH   1  16
ATOM     16  C11 UNK     0      -0.880  -0.821  -1.420  0.00  0.00    +0.000 C 
ATOM     17  C10 UNK     0      -1.633   0.491  -1.119  0.00  0.00    +0.000 C 
ATOM     18  C9  UNK     0      -2.523   0.433   0.163  0.00  0.00    +0.000 C 
ATOM     19  C12 UNK     0      -2.837  -1.008   0.651  0.00  0.00    +0.000 C 
ATOM     20  C15 UNK     0      -2.812  -2.022  -0.462  0.00  0.00    +0.000 C 
ATOM     21  C13 UNK     0      -1.859  -1.969  -1.400  0.00  0.00    +0.000 C 
BRANCH  18  22
ATOM     22  C14 UNK     0      -1.906   1.256   1.312  0.00  0.00    +0.000 C 
BRANCH  22  23
ATOM     23  O1  UNK     0      -1.818   2.613   0.966  0.00  0.00    +0.000 OA
ATOM     24  H30 UNK     0      -2.737   2.982   1.029  0.00  0.00    +0.000 HD
ENDBRANCH  22  23
ENDBRANCH  18  22
ENDBRANCH   1  16
TORSDOF 3
