REMARK  Name = C:\Users\Maximilian\Desktop\Conformers\converted_pdb\conformers_pdb\MPLA_conf_6.pdb
REMARK  3 active torsions:
REMARK  status: ('A' for Active; 'I' for Inactive)
REMARK    1  A    between atoms: N2_1  and  C11_10
REMARK    2  A    between atoms: C9_12  and  C14_16
REMARK    3  A    between atoms: C14_16  and  O1_17
REMARK                            x       y       z     vdW  Elec       q    Type
REMARK                         _______ _______ _______ _____ _____    ______ ____
ROOT
ATOM      1  N2  UNK     0       0.680   1.390   0.528  0.00  0.00    +0.000 N 
ATOM      2  N3  UNK     0       1.248   2.201   1.419  0.00  0.00    +0.000 NA
ATOM      3  N4  UNK     0       2.560   1.971   1.513  0.00  0.00    +0.000 NA
ATOM      4  N5  UNK     0       1.585  -0.384  -0.866  0.00  0.00    +0.000 NA
ATOM      5  N6  UNK     0       3.930  -0.691  -0.587  0.00  0.00    +0.000 NA
ATOM      6  C16 UNK     0       1.661   0.612   0.048  0.00  0.00    +0.000 A 
ATOM      7  C17 UNK     0       2.812   0.971   0.649  0.00  0.00    +0.000 A 
ATOM      8  C18 UNK     0       3.995   0.314   0.338  0.00  0.00    +0.000 A 
ATOM      9  C19 UNK     0       2.742  -1.042  -1.186  0.00  0.00    +0.000 A 
ATOM     10  N8  UNK     0       2.716  -2.097  -2.144  0.00  0.00    +0.000 N 
ATOM     11  H33 UNK     0       1.819  -2.371  -2.603  0.00  0.00    +0.000 HD
ATOM     12  H34 UNK     0       3.593  -2.606  -2.395  0.00  0.00    +0.000 HD
ATOM     13  N7  UNK     0       5.235   0.662   0.953  0.00  0.00    +0.000 N 
ATOM     14  H32 UNK     0       5.288   1.428   1.660  0.00  0.00    +0.000 HD
ATOM     15  H31 UNK     0       6.108   0.148   0.699  0.00  0.00    +0.000 HD
ENDROOT
BRANCH   1  16
ATOM     16  C11 UNK     0      -0.752   1.353   0.226  0.00  0.00    +0.000 C 
ATOM     17  C10 UNK     0      -1.392   0.097   0.843  0.00  0.00    +0.000 C 
ATOM     18  C9  UNK     0      -2.830  -0.082   0.328  0.00  0.00    +0.000 C 
ATOM     19  C12 UNK     0      -2.809  -0.260  -1.203  0.00  0.00    +0.000 C 
ATOM     20  C15 UNK     0      -1.962   0.780  -1.894  0.00  0.00    +0.000 C 
ATOM     21  C13 UNK     0      -0.977   1.445  -1.268  0.00  0.00    +0.000 C 
BRANCH  18  22
ATOM     22  C14 UNK     0      -3.505  -1.278   1.021  0.00  0.00    +0.000 C 
BRANCH  22  23
ATOM     23  O1  UNK     0      -4.858  -1.362   0.657  0.00  0.00    +0.000 OA
ATOM     24  H30 UNK     0      -4.904  -1.937  -0.151  0.00  0.00    +0.000 HD
ENDBRANCH  22  23
ENDBRANCH  18  22
ENDBRANCH   1  16
TORSDOF 3
