REMARK  Name = C:\Users\Maximilian\Desktop\Conformers\converted_pdb\conformers_pdb\MPLA_conf_15.pdb
REMARK  3 active torsions:
REMARK  status: ('A' for Active; 'I' for Inactive)
REMARK    1  A    between atoms: N2_1  and  C11_10
REMARK    2  A    between atoms: C9_12  and  C14_16
REMARK    3  A    between atoms: C14_16  and  O1_17
REMARK                            x       y       z     vdW  Elec       q    Type
REMARK                         _______ _______ _______ _____ _____    ______ ____
ROOT
ATOM      1  N2  UNK     0       0.632  -0.492  -0.721  0.00  0.00    +0.000 N 
ATOM      2  N3  UNK     0       0.754  -1.794  -0.977  0.00  0.00    +0.000 NA
ATOM      3  N4  UNK     0       1.995  -2.219  -0.725  0.00  0.00    +0.000 NA
ATOM      4  N5  UNK     0       2.190   1.148   0.159  0.00  0.00    +0.000 NA
ATOM      5  N6  UNK     0       4.354   0.248   0.586  0.00  0.00    +0.000 NA
ATOM      6  C16 UNK     0       1.824  -0.081  -0.273  0.00  0.00    +0.000 A 
ATOM      7  C17 UNK     0       2.661  -1.137  -0.282  0.00  0.00    +0.000 A 
ATOM      8  C18 UNK     0       3.970  -0.992   0.155  0.00  0.00    +0.000 A 
ATOM      9  C19 UNK     0       3.480   1.311   0.591  0.00  0.00    +0.000 A 
ATOM     10  N8  UNK     0       3.918   2.587   1.051  0.00  0.00    +0.000 N 
ATOM     11  H33 UNK     0       3.262   3.399   1.060  0.00  0.00    +0.000 HD
ATOM     12  H34 UNK     0       4.899   2.720   1.384  0.00  0.00    +0.000 HD
ATOM     13  N7  UNK     0       4.888  -2.085   0.167  0.00  0.00    +0.000 N 
ATOM     14  H32 UNK     0       5.866  -1.945   0.505  0.00  0.00    +0.000 HD
ATOM     15  H31 UNK     0       4.597  -3.033  -0.159  0.00  0.00    +0.000 HD
ENDROOT
BRANCH   1  16
ATOM     16  C11 UNK     0      -0.612   0.275  -0.799  0.00  0.00    +0.000 C 
ATOM     17  C10 UNK     0      -1.474  -0.002   0.445  0.00  0.00    +0.000 C 
ATOM     18  C9  UNK     0      -2.880   0.590   0.259  0.00  0.00    +0.000 C 
ATOM     19  C12 UNK     0      -3.571  -0.074  -0.947  0.00  0.00    +0.000 C 
ATOM     20  C15 UNK     0      -2.681  -0.110  -2.166  0.00  0.00    +0.000 C 
ATOM     21  C13 UNK     0      -1.341  -0.043  -2.087  0.00  0.00    +0.000 C 
BRANCH  18  22
ATOM     22  C14 UNK     0      -3.729   0.461   1.538  0.00  0.00    +0.000 C 
BRANCH  22  23
ATOM     23  O1  UNK     0      -3.930  -0.883   1.889  0.00  0.00    +0.000 OA
ATOM     24  H30 UNK     0      -3.174  -1.144   2.477  0.00  0.00    +0.000 HD
ENDBRANCH  22  23
ENDBRANCH  18  22
ENDBRANCH   1  16
TORSDOF 3
