REMARK  Name = C:\Users\Maximilian\Desktop\Conformers\converted_pdb\conformers_pdb\MPLA_conf_16.pdb
REMARK  3 active torsions:
REMARK  status: ('A' for Active; 'I' for Inactive)
REMARK    1  A    between atoms: N2_1  and  C11_10
REMARK    2  A    between atoms: C9_12  and  C14_16
REMARK    3  A    between atoms: C14_16  and  O1_17
REMARK                            x       y       z     vdW  Elec       q    Type
REMARK                         _______ _______ _______ _____ _____    ______ ____
ROOT
ATOM      1  N2  UNK     0       0.652  -1.451   0.708  0.00  0.00    +0.000 N 
ATOM      2  N3  UNK     0       1.178  -2.674   0.756  0.00  0.00    +0.000 NA
ATOM      3  N4  UNK     0       2.494  -2.644   0.529  0.00  0.00    +0.000 NA
ATOM      4  N5  UNK     0       1.639   0.727   0.267  0.00  0.00    +0.000 NA
ATOM      5  N6  UNK     0       3.986   0.630  -0.128  0.00  0.00    +0.000 NA
ATOM      6  C16 UNK     0       1.666  -0.617   0.431  0.00  0.00    +0.000 A 
ATOM      7  C17 UNK     0       2.793  -1.347   0.326  0.00  0.00    +0.000 A 
ATOM      8  C18 UNK     0       4.001  -0.728   0.038  0.00  0.00    +0.000 A 
ATOM      9  C19 UNK     0       2.823   1.355  -0.017  0.00  0.00    +0.000 A 
ATOM     10  N8  UNK     0       2.848   2.769  -0.198  0.00  0.00    +0.000 N 
ATOM     11  H33 UNK     0       3.745   3.257  -0.415  0.00  0.00    +0.000 HD
ATOM     12  H34 UNK     0       1.970   3.328  -0.116  0.00  0.00    +0.000 HD
ATOM     13  N7  UNK     0       5.217  -1.465  -0.084  0.00  0.00    +0.000 N 
ATOM     14  H32 UNK     0       5.231  -2.502   0.041  0.00  0.00    +0.000 HD
ATOM     15  H31 UNK     0       6.110  -0.971  -0.303  0.00  0.00    +0.000 HD
ENDROOT
BRANCH   1  16
ATOM     16  C11 UNK     0      -0.772  -1.152   0.873  0.00  0.00    +0.000 C 
ATOM     17  C10 UNK     0      -1.393  -0.702  -0.465  0.00  0.00    +0.000 C 
ATOM     18  C9  UNK     0      -2.877  -0.229  -0.327  0.00  0.00    +0.000 C 
ATOM     19  C12 UNK     0      -3.319   0.012   1.146  0.00  0.00    +0.000 C 
ATOM     20  C15 UNK     0      -2.186   0.502   2.008  0.00  0.00    +0.000 C 
ATOM     21  C13 UNK     0      -0.984  -0.076   1.909  0.00  0.00    +0.000 C 
BRANCH  18  22
ATOM     22  C14 UNK     0      -3.127   1.019  -1.193  0.00  0.00    +0.000 C 
BRANCH  22  23
ATOM     23  O1  UNK     0      -4.500   1.291  -1.265  0.00  0.00    +0.000 OA
ATOM     24  H30 UNK     0      -4.589   2.112  -1.816  0.00  0.00    +0.000 HD
ENDBRANCH  22  23
ENDBRANCH  18  22
ENDBRANCH   1  16
TORSDOF 3
