REMARK  Name = C:\Users\Maximilian\Desktop\Conformers\converted_pdb\conformers_pdb\MPLA_conf_5.pdb
REMARK  3 active torsions:
REMARK  status: ('A' for Active; 'I' for Inactive)
REMARK    1  A    between atoms: N2_1  and  C11_10
REMARK    2  A    between atoms: C9_12  and  C14_16
REMARK    3  A    between atoms: C14_16  and  O1_17
REMARK                            x       y       z     vdW  Elec       q    Type
REMARK                         _______ _______ _______ _____ _____    ______ ____
ROOT
ATOM      1  N2  UNK     0      -0.488   0.901  -1.244  0.00  0.00    +0.000 N 
ATOM      2  N3  UNK     0      -0.812   1.193  -2.502  0.00  0.00    +0.000 NA
ATOM      3  N4  UNK     0      -2.058   0.804  -2.782  0.00  0.00    +0.000 NA
ATOM      4  N5  UNK     0      -1.717  -0.205   0.538  0.00  0.00    +0.000 NA
ATOM      5  N6  UNK     0      -3.916  -0.854  -0.104  0.00  0.00    +0.000 NA
ATOM      6  C16 UNK     0      -1.559   0.297  -0.710  0.00  0.00    +0.000 A 
ATOM      7  C17 UNK     0      -2.522   0.242  -1.651  0.00  0.00    +0.000 A 
ATOM      8  C18 UNK     0      -3.745  -0.346  -1.363  0.00  0.00    +0.000 A 
ATOM      9  C19 UNK     0      -2.919  -0.788   0.840  0.00  0.00    +0.000 A 
ATOM     10  N8  UNK     0      -3.136  -1.330   2.140  0.00  0.00    +0.000 N 
ATOM     11  H33 UNK     0      -4.049  -1.777   2.381  0.00  0.00    +0.000 HD
ATOM     12  H34 UNK     0      -2.384  -1.285   2.864  0.00  0.00    +0.000 HD
ATOM     13  N7  UNK     0      -4.790  -0.428  -2.332  0.00  0.00    +0.000 N 
ATOM     14  H32 UNK     0      -5.699  -0.878  -2.085  0.00  0.00    +0.000 HD
ATOM     15  H31 UNK     0      -4.662  -0.042  -3.294  0.00  0.00    +0.000 HD
ENDROOT
BRANCH   1  16
ATOM     16  C11 UNK     0       0.821   1.151  -0.639  0.00  0.00    +0.000 C 
ATOM     17  C10 UNK     0       1.596  -0.171  -0.486  0.00  0.00    +0.000 C 
ATOM     18  C9  UNK     0       2.851   0.040   0.378  0.00  0.00    +0.000 C 
ATOM     19  C12 UNK     0       2.433   0.513   1.783  0.00  0.00    +0.000 C 
ATOM     20  C15 UNK     0       1.452   1.657   1.735  0.00  0.00    +0.000 C 
ATOM     21  C13 UNK     0       0.663   1.889   0.673  0.00  0.00    +0.000 C 
BRANCH  18  22
ATOM     22  C14 UNK     0       3.688  -1.250   0.474  0.00  0.00    +0.000 C 
BRANCH  22  23
ATOM     23  O1  UNK     0       4.166  -1.629  -0.789  0.00  0.00    +0.000 OA
ATOM     24  H30 UNK     0       4.906  -1.006  -1.011  0.00  0.00    +0.000 HD
ENDBRANCH  22  23
ENDBRANCH  18  22
ENDBRANCH   1  16
TORSDOF 3
