REMARK  Name = C:\Users\Maximilian\Desktop\Conformers\converted_pdb\conformers_pdb\Myricetin_conf_1.pdb
REMARK  7 active torsions:
REMARK  status: ('A' for Active; 'I' for Inactive)
REMARK    1  A    between atoms: C10_4  and  C12_12
REMARK    2  A    between atoms: C13_6  and  O2_24
REMARK    3  A    between atoms: C15_8  and  O3_28
REMARK    4  A    between atoms: C19_10  and  O5_26
REMARK    5  A    between atoms: C21_14  and  O6_18
REMARK    6  A    between atoms: C23_15  and  O8_20
REMARK    7  A    between atoms: C22_16  and  O7_22
REMARK                            x       y       z     vdW  Elec       q    Type
REMARK                         _______ _______ _______ _____ _____    ______ ____
ROOT
ATOM      1  O1  UNK     0      -0.509   0.744  -0.114  0.00  0.00    +0.000 OA
ATOM      2  O4  UNK     0      -2.614  -2.166   1.652  0.00  0.00    +0.000 OA
ATOM      3  C9  UNK     0      -2.645  -0.170   0.444  0.00  0.00    +0.000 A 
ATOM      4  C10 UNK     0       0.141  -0.302   0.382  0.00  0.00    +0.000 A 
ATOM      5  C11 UNK     0      -1.832   0.858  -0.100  0.00  0.00    +0.000 A 
ATOM      6  C13 UNK     0      -0.577  -1.336   1.006  0.00  0.00    +0.000 A 
ATOM      7  C14 UNK     0      -1.979  -1.265   1.044  0.00  0.00    +0.000 A 
ATOM      8  C15 UNK     0      -4.063  -0.016   0.388  0.00  0.00    +0.000 A 
ATOM      9  C16 UNK     0      -2.408   2.016  -0.629  0.00  0.00    +0.000 A 
ATOM     10  C19 UNK     0      -3.790   2.182  -0.625  0.00  0.00    +0.000 A 
ATOM     11  C20 UNK     0      -4.610   1.172  -0.116  0.00  0.00    +0.000 A 
ENDROOT
BRANCH   4  12
ATOM     12  C12 UNK     0       1.618  -0.319   0.280  0.00  0.00    +0.000 A 
ATOM     13  C18 UNK     0       2.339   0.865   0.494  0.00  0.00    +0.000 A 
ATOM     14  C21 UNK     0       3.734   0.890   0.385  0.00  0.00    +0.000 A 
ATOM     15  C23 UNK     0       4.429  -0.294   0.041  0.00  0.00    +0.000 A 
ATOM     16  C22 UNK     0       3.708  -1.473  -0.196  0.00  0.00    +0.000 A 
ATOM     17  C17 UNK     0       2.312  -1.483  -0.082  0.00  0.00    +0.000 A 
BRANCH  14  18
ATOM     18  O6  UNK     0       4.384   2.103   0.624  0.00  0.00    +0.000 OA
ATOM     19  H31 UNK     0       5.383   2.231   0.566  0.00  0.00    +0.000 HD
ENDBRANCH  14  18
BRANCH  15  20
ATOM     20  O8  UNK     0       5.820  -0.341  -0.078  0.00  0.00    +0.000 OA
ATOM     21  H33 UNK     0       6.428   0.450   0.077  0.00  0.00    +0.000 HD
ENDBRANCH  15  20
BRANCH  16  22
ATOM     22  O7  UNK     0       4.390  -2.637  -0.549  0.00  0.00    +0.000 OA
ATOM     23  H32 UNK     0       3.901  -3.506  -0.728  0.00  0.00    +0.000 HD
ENDBRANCH  16  22
ENDBRANCH   4  12
BRANCH   6  24
ATOM     24  O2  UNK     0       0.102  -2.397   1.612  0.00  0.00    +0.000 OA
ATOM     25  H28 UNK     0      -0.381  -3.157   2.077  0.00  0.00    +0.000 HD
ENDBRANCH   6  24
BRANCH  10  26
ATOM     26  O5  UNK     0      -4.343   3.354  -1.138  0.00  0.00    +0.000 OA
ATOM     27  H30 UNK     0      -5.345   3.505  -1.153  0.00  0.00    +0.000 HD
ENDBRANCH  10  26
BRANCH   8  28
ATOM     28  O3  UNK     0      -4.972  -1.001   0.785  0.00  0.00    +0.000 OA
ATOM     29  H29 UNK     0      -4.749  -1.980   0.890  0.00  0.00    +0.000 HD
ENDBRANCH   8  28
TORSDOF 7
