REMARK  Name = C:\Users\Maximilian\Desktop\Conformers\converted_pdb\conformers_pdb\Oleanolic Acid_conf_9.pdb
REMARK  10 active torsions:
REMARK  status: ('A' for Active; 'I' for Inactive)
REMARK    1  A    between atoms: C4_1  and  C18_15
REMARK    2  A    between atoms: C6_3  and  C22_19
REMARK    3  A    between atoms: C7_4  and  C24_21
REMARK    4  A    between atoms: C12_9  and  C28_25
REMARK    5  A    between atoms: C12_9  and  C29_26
REMARK    6  A    between atoms: C17_14  and  C31_30
REMARK    7  A    between atoms: C20_17  and  O1_34
REMARK    8  A    between atoms: C27_24  and  C32_28
REMARK    9  A    between atoms: C27_24  and  C33_29
REMARK   10  A    between atoms: C31_30  and  O2_32
REMARK                            x       y       z     vdW  Elec       q    Type
REMARK                         _______ _______ _______ _____ _____    ______ ____
ROOT
ATOM      1  C4  UNK     0       0.670   0.012  -0.796  0.00  0.00    +0.000 C 
ATOM      2  C5  UNK     0       1.280   0.244   0.640  0.00  0.00    +0.000 C 
ATOM      3  C6  UNK     0       2.793   0.722   0.709  0.00  0.00    +0.000 C 
ATOM      4  C7  UNK     0      -0.750  -0.730  -0.611  0.00  0.00    +0.000 C 
ATOM      5  C8  UNK     0       3.637  -0.297  -0.150  0.00  0.00    +0.000 C 
ATOM      6  C9  UNK     0       1.653  -0.847  -1.655  0.00  0.00    +0.000 C 
ATOM      7  C10 UNK     0      -1.670   0.205   0.184  0.00  0.00    +0.000 C 
ATOM      8  C11 UNK     0       3.117  -0.373  -1.609  0.00  0.00    +0.000 C 
ATOM      9  C12 UNK     0       5.210  -0.202   0.008  0.00  0.00    +0.000 C 
ATOM     10  C13 UNK     0      -3.181   0.265  -0.038  0.00  0.00    +0.000 C 
ATOM     11  C14 UNK     0       0.303   1.013   1.583  0.00  0.00    +0.000 C 
ATOM     12  C15 UNK     0      -1.359  -1.139  -1.997  0.00  0.00    +0.000 C 
ATOM     13  C16 UNK     0       3.271   0.610   2.193  0.00  0.00    +0.000 C 
ATOM     14  C17 UNK     0      -3.649  -0.113  -1.489  0.00  0.00    +0.000 C 
ATOM     15  C18 UNK     0       0.470   1.384  -1.533  0.00  0.00    +0.000 C 
ATOM     16  C19 UNK     0      -2.875  -1.359  -1.982  0.00  0.00    +0.000 C 
ATOM     17  C20 UNK     0       5.563  -0.273   1.530  0.00  0.00    +0.000 C 
ATOM     18  C21 UNK     0      -1.164   0.924   1.218  0.00  0.00    +0.000 C 
ATOM     19  C22 UNK     0       2.962   2.208   0.243  0.00  0.00    +0.000 C 
ATOM     20  C23 UNK     0       4.791   0.749   2.371  0.00  0.00    +0.000 C 
ATOM     21  C24 UNK     0      -0.664  -2.043   0.240  0.00  0.00    +0.000 C 
ATOM     22  C25 UNK     0      -3.933  -0.567   1.025  0.00  0.00    +0.000 C 
ATOM     23  C26 UNK     0      -5.180  -0.457  -1.507  0.00  0.00    +0.000 C 
ATOM     24  C27 UNK     0      -5.461  -0.241   1.036  0.00  0.00    +0.000 C 
ATOM     25  C28 UNK     0       5.880  -1.428  -0.673  0.00  0.00    +0.000 C 
ATOM     26  C29 UNK     0       5.818   1.065  -0.645  0.00  0.00    +0.000 C 
ATOM     27  C30 UNK     0      -5.955   0.225  -0.371  0.00  0.00    +0.000 C 
ATOM     28  C32 UNK     0      -6.243  -1.501   1.472  0.00  0.00    +0.000 C 
ATOM     29  C33 UNK     0      -5.746   0.880   2.060  0.00  0.00    +0.000 C 
ENDROOT
BRANCH  14  30
ATOM     30  C31 UNK     0      -3.403   1.037  -2.463  0.00  0.00    +0.000 C 
ATOM     31  O3  UNK     0      -2.916   2.134  -2.074  0.00  0.00    +0.000 OA
BRANCH  30  32
ATOM     32  O2  UNK     0      -3.703   0.873  -3.812  0.00  0.00    +0.000 OA
ATOM     33  H81 UNK     0      -3.529   1.616  -4.476  0.00  0.00    +0.000 HD
ENDBRANCH  30  32
ENDBRANCH  14  30
BRANCH  17  34
ATOM     34  O1  UNK     0       6.942  -0.068   1.734  0.00  0.00    +0.000 OA
ATOM     35  H80 UNK     0       7.340  -0.939   1.997  0.00  0.00    +0.000 HD
ENDBRANCH  17  34
TORSDOF 3
