REMARK  Name = C:\Users\Maximilian\Desktop\Conformers\converted_pdb\conformers_pdb\Oleanolic Acid_conf_30.pdb
REMARK  10 active torsions:
REMARK  status: ('A' for Active; 'I' for Inactive)
REMARK    1  A    between atoms: C4_1  and  C18_15
REMARK    2  A    between atoms: C6_3  and  C22_19
REMARK    3  A    between atoms: C7_4  and  C24_21
REMARK    4  A    between atoms: C12_9  and  C28_25
REMARK    5  A    between atoms: C12_9  and  C29_26
REMARK    6  A    between atoms: C17_14  and  C31_30
REMARK    7  A    between atoms: C20_17  and  O1_34
REMARK    8  A    between atoms: C27_24  and  C32_28
REMARK    9  A    between atoms: C27_24  and  C33_29
REMARK   10  A    between atoms: C31_30  and  O2_32
REMARK                            x       y       z     vdW  Elec       q    Type
REMARK                         _______ _______ _______ _____ _____    ______ ____
ROOT
ATOM      1  C4  UNK     0       0.602   1.133   0.456  0.00  0.00    +0.000 C 
ATOM      2  C5  UNK     0       1.146  -0.294   0.877  0.00  0.00    +0.000 C 
ATOM      3  C6  UNK     0       2.719  -0.451   0.979  0.00  0.00    +0.000 C 
ATOM      4  C7  UNK     0      -0.854   0.920  -0.204  0.00  0.00    +0.000 C 
ATOM      5  C8  UNK     0       3.289  -0.194  -0.466  0.00  0.00    +0.000 C 
ATOM      6  C9  UNK     0       1.634   1.853  -0.488  0.00  0.00    +0.000 C 
ATOM      7  C10 UNK     0      -1.742   0.040   0.725  0.00  0.00    +0.000 C 
ATOM      8  C11 UNK     0       2.601   0.954  -1.274  0.00  0.00    +0.000 C 
ATOM      9  C12 UNK     0       4.862  -0.319  -0.620  0.00  0.00    +0.000 C 
ATOM     10  C13 UNK     0      -3.280   0.230   0.819  0.00  0.00    +0.000 C 
ATOM     11  C14 UNK     0       0.294  -0.852   2.021  0.00  0.00    +0.000 C 
ATOM     12  C15 UNK     0      -1.596   2.284  -0.395  0.00  0.00    +0.000 C 
ATOM     13  C16 UNK     0       3.103  -1.925   1.382  0.00  0.00    +0.000 C 
ATOM     14  C17 UNK     0      -3.977   1.376  -0.046  0.00  0.00    +0.000 C 
ATOM     15  C18 UNK     0       0.436   2.069   1.710  0.00  0.00    +0.000 C 
ATOM     16  C19 UNK     0      -2.992   2.127  -0.993  0.00  0.00    +0.000 C 
ATOM     17  C20 UNK     0       5.434  -1.468   0.302  0.00  0.00    +0.000 C 
ATOM     18  C21 UNK     0      -1.179  -0.753   1.692  0.00  0.00    +0.000 C 
ATOM     19  C22 UNK     0       3.295   0.504   2.056  0.00  0.00    +0.000 C 
ATOM     20  C23 UNK     0       4.367  -2.506   0.699  0.00  0.00    +0.000 C 
ATOM     21  C24 UNK     0      -0.725   0.250  -1.611  0.00  0.00    +0.000 C 
ATOM     22  C25 UNK     0      -4.097  -1.102   0.807  0.00  0.00    +0.000 C 
ATOM     23  C26 UNK     0      -5.133   0.801  -0.928  0.00  0.00    +0.000 C 
ATOM     24  C27 UNK     0      -4.471  -1.660  -0.596  0.00  0.00    +0.000 C 
ATOM     25  C28 UNK     0       5.181  -0.697  -2.096  0.00  0.00    +0.000 C 
ATOM     26  C29 UNK     0       5.606   1.016  -0.342  0.00  0.00    +0.000 C 
ATOM     27  C30 UNK     0      -4.749  -0.517  -1.615  0.00  0.00    +0.000 C 
ATOM     28  C32 UNK     0      -3.337  -2.573  -1.111  0.00  0.00    +0.000 C 
ATOM     29  C33 UNK     0      -5.743  -2.532  -0.455  0.00  0.00    +0.000 C 
ENDROOT
BRANCH  14  30
ATOM     30  C31 UNK     0      -4.623   2.386   0.912  0.00  0.00    +0.000 C 
ATOM     31  O3  UNK     0      -5.468   1.988   1.763  0.00  0.00    +0.000 OA
BRANCH  30  32
ATOM     32  O2  UNK     0      -4.287   3.739   0.887  0.00  0.00    +0.000 OA
ATOM     33  H81 UNK     0      -4.703   4.394   1.540  0.00  0.00    +0.000 HD
ENDBRANCH  30  32
ENDBRANCH  14  30
BRANCH  17  34
ATOM     34  O1  UNK     0       6.064  -0.965   1.455  0.00  0.00    +0.000 OA
ATOM     35  H80 UNK     0       6.638  -1.689   1.821  0.00  0.00    +0.000 HD
ENDBRANCH  17  34
TORSDOF 3
