REMARK  Name = C:\Users\Maximilian\Desktop\Conformers\converted_pdb\conformers_pdb\Oleanolic Acid_conf_16.pdb
REMARK  10 active torsions:
REMARK  status: ('A' for Active; 'I' for Inactive)
REMARK    1  A    between atoms: C4_1  and  C18_15
REMARK    2  A    between atoms: C6_3  and  C22_19
REMARK    3  A    between atoms: C7_4  and  C24_21
REMARK    4  A    between atoms: C12_9  and  C28_25
REMARK    5  A    between atoms: C12_9  and  C29_26
REMARK    6  A    between atoms: C17_14  and  C31_30
REMARK    7  A    between atoms: C20_17  and  O1_34
REMARK    8  A    between atoms: C27_24  and  C32_28
REMARK    9  A    between atoms: C27_24  and  C33_29
REMARK   10  A    between atoms: C31_30  and  O2_32
REMARK                            x       y       z     vdW  Elec       q    Type
REMARK                         _______ _______ _______ _____ _____    ______ ____
ROOT
ATOM      1  C4  UNK     0       0.633   0.710  -0.662  0.00  0.00    +0.000 C 
ATOM      2  C5  UNK     0       1.340  -0.111   0.492  0.00  0.00    +0.000 C 
ATOM      3  C6  UNK     0       2.935  -0.035   0.623  0.00  0.00    +0.000 C 
ATOM      4  C7  UNK     0      -0.882   0.165  -0.842  0.00  0.00    +0.000 C 
ATOM      5  C8  UNK     0       3.545  -0.218  -0.815  0.00  0.00    +0.000 C 
ATOM      6  C9  UNK     0       1.442   0.554  -1.989  0.00  0.00    +0.000 C 
ATOM      7  C10 UNK     0      -1.602   0.124   0.524  0.00  0.00    +0.000 C 
ATOM      8  C11 UNK     0       2.945   0.794  -1.823  0.00  0.00    +0.000 C 
ATOM      9  C12 UNK     0       5.126  -0.371  -0.891  0.00  0.00    +0.000 C 
ATOM     10  C13 UNK     0      -3.132   0.191   0.643  0.00  0.00    +0.000 C 
ATOM     11  C14 UNK     0       0.576   0.078   1.820  0.00  0.00    +0.000 C 
ATOM     12  C15 UNK     0      -1.686   1.074  -1.833  0.00  0.00    +0.000 C 
ATOM     13  C16 UNK     0       3.418  -1.227   1.544  0.00  0.00    +0.000 C 
ATOM     14  C17 UNK     0      -3.856   1.029  -0.476  0.00  0.00    +0.000 C 
ATOM     15  C18 UNK     0       0.591   2.231  -0.296  0.00  0.00    +0.000 C 
ATOM     16  C19 UNK     0      -3.193   0.790  -1.854  0.00  0.00    +0.000 C 
ATOM     17  C20 UNK     0       5.693  -1.137   0.365  0.00  0.00    +0.000 C 
ATOM     18  C21 UNK     0      -0.913  -0.078   1.674  0.00  0.00    +0.000 C 
ATOM     19  C22 UNK     0       3.427   1.293   1.285  0.00  0.00    +0.000 C 
ATOM     20  C23 UNK     0       4.626  -2.026   1.019  0.00  0.00    +0.000 C 
ATOM     21  C24 UNK     0      -0.929  -1.287  -1.427  0.00  0.00    +0.000 C 
ATOM     22  C25 UNK     0      -3.763  -1.211   0.812  0.00  0.00    +0.000 C 
ATOM     23  C26 UNK     0      -5.365   0.609  -0.580  0.00  0.00    +0.000 C 
ATOM     24  C27 UNK     0      -5.242  -1.122   1.308  0.00  0.00    +0.000 C 
ATOM     25  C28 UNK     0       5.477  -1.219  -2.147  0.00  0.00    +0.000 C 
ATOM     26  C29 UNK     0       5.849   0.992  -1.067  0.00  0.00    +0.000 C 
ATOM     27  C30 UNK     0      -5.940   0.169   0.773  0.00  0.00    +0.000 C 
ATOM     28  C32 UNK     0      -6.012  -2.369   0.819  0.00  0.00    +0.000 C 
ATOM     29  C33 UNK     0      -5.277  -1.113   2.852  0.00  0.00    +0.000 C 
ENDROOT
BRANCH  14  30
ATOM     30  C31 UNK     0      -3.777   2.521  -0.151  0.00  0.00    +0.000 C 
ATOM     31  O3  UNK     0      -4.474   3.350  -0.799  0.00  0.00    +0.000 OA
BRANCH  30  32
ATOM     32  O2  UNK     0      -2.883   2.998   0.806  0.00  0.00    +0.000 OA
ATOM     33  H81 UNK     0      -2.807   3.989   1.001  0.00  0.00    +0.000 HD
ENDBRANCH  30  32
ENDBRANCH  14  30
BRANCH  17  34
ATOM     34  O1  UNK     0       6.235  -0.259   1.321  0.00  0.00    +0.000 OA
ATOM     35  H80 UNK     0       6.791  -0.802   1.940  0.00  0.00    +0.000 HD
ENDBRANCH  17  34
TORSDOF 3
