REMARK  Name = C:\Users\Maximilian\Desktop\Conformers\converted_pdb\conformers_pdb\Oleanolic Acid_conf_32.pdb
REMARK  10 active torsions:
REMARK  status: ('A' for Active; 'I' for Inactive)
REMARK    1  A    between atoms: C4_1  and  C18_15
REMARK    2  A    between atoms: C6_3  and  C22_19
REMARK    3  A    between atoms: C7_4  and  C24_21
REMARK    4  A    between atoms: C12_9  and  C28_25
REMARK    5  A    between atoms: C12_9  and  C29_26
REMARK    6  A    between atoms: C17_14  and  C31_30
REMARK    7  A    between atoms: C20_17  and  O1_34
REMARK    8  A    between atoms: C27_24  and  C32_28
REMARK    9  A    between atoms: C27_24  and  C33_29
REMARK   10  A    between atoms: C31_30  and  O2_32
REMARK                            x       y       z     vdW  Elec       q    Type
REMARK                         _______ _______ _______ _____ _____    ______ ____
ROOT
ATOM      1  C4  UNK     0       0.633   0.147  -0.934  0.00  0.00    +0.000 C 
ATOM      2  C5  UNK     0       1.375   0.238   0.461  0.00  0.00    +0.000 C 
ATOM      3  C6  UNK     0       2.964   0.381   0.447  0.00  0.00    +0.000 C 
ATOM      4  C7  UNK     0      -0.883  -0.351  -0.654  0.00  0.00    +0.000 C 
ATOM      5  C8  UNK     0       3.520  -0.770  -0.466  0.00  0.00    +0.000 C 
ATOM      6  C9  UNK     0       1.401  -0.831  -1.898  0.00  0.00    +0.000 C 
ATOM      7  C10 UNK     0      -1.567   0.629   0.325  0.00  0.00    +0.000 C 
ATOM      8  C11 UNK     0       2.932  -0.684  -1.896  0.00  0.00    +0.000 C 
ATOM      9  C12 UNK     0       5.082  -1.026  -0.397  0.00  0.00    +0.000 C 
ATOM     10  C13 UNK     0      -3.092   0.812   0.368  0.00  0.00    +0.000 C 
ATOM     11  C14 UNK     0       0.645   1.206   1.439  0.00  0.00    +0.000 C 
ATOM     12  C15 UNK     0      -1.712  -0.486  -1.987  0.00  0.00    +0.000 C 
ATOM     13  C16 UNK     0       3.483   0.133   1.905  0.00  0.00    +0.000 C 
ATOM     14  C17 UNK     0      -3.818   0.654  -1.023  0.00  0.00    +0.000 C 
ATOM     15  C18 UNK     0       0.596   1.548  -1.630  0.00  0.00    +0.000 C 
ATOM     16  C19 UNK     0      -2.794   0.581  -2.183  0.00  0.00    +0.000 C 
ATOM     17  C20 UNK     0       5.490  -1.221   1.097  0.00  0.00    +0.000 C 
ATOM     18  C21 UNK     0      -0.855   1.209   1.326  0.00  0.00    +0.000 C 
ATOM     19  C22 UNK     0       3.442   1.800  -0.007  0.00  0.00    +0.000 C 
ATOM     20  C23 UNK     0       4.998  -0.088   2.014  0.00  0.00    +0.000 C 
ATOM     21  C24 UNK     0      -0.939  -1.745   0.062  0.00  0.00    +0.000 C 
ATOM     22  C25 UNK     0      -3.685  -0.074   1.500  0.00  0.00    +0.000 C 
ATOM     23  C26 UNK     0      -4.710  -0.623  -1.014  0.00  0.00    +0.000 C 
ATOM     24  C27 UNK     0      -5.236  -0.152   1.498  0.00  0.00    +0.000 C 
ATOM     25  C28 UNK     0       5.424  -2.358  -1.134  0.00  0.00    +0.000 C 
ATOM     26  C29 UNK     0       5.926   0.100  -1.062  0.00  0.00    +0.000 C 
ATOM     27  C30 UNK     0      -5.774  -0.605   0.100  0.00  0.00    +0.000 C 
ATOM     28  C32 UNK     0      -5.662  -1.178   2.575  0.00  0.00    +0.000 C 
ATOM     29  C33 UNK     0      -5.835   1.219   1.900  0.00  0.00    +0.000 C 
ENDROOT
BRANCH  14  30
ATOM     30  C31 UNK     0      -4.683   1.881  -1.332  0.00  0.00    +0.000 C 
ATOM     31  O3  UNK     0      -5.766   1.759  -1.963  0.00  0.00    +0.000 OA
BRANCH  30  32
ATOM     32  O2  UNK     0      -4.225   3.163  -1.021  0.00  0.00    +0.000 OA
ATOM     33  H81 UNK     0      -4.781   3.986  -1.229  0.00  0.00    +0.000 HD
ENDBRANCH  30  32
ENDBRANCH  14  30
BRANCH  17  34
ATOM     34  O1  UNK     0       6.889  -1.334   1.216  0.00  0.00    +0.000 OA
ATOM     35  H80 UNK     0       7.070  -1.820   2.060  0.00  0.00    +0.000 HD
ENDBRANCH  17  34
TORSDOF 3
