REMARK  Name = C:\Users\Maximilian\Desktop\Conformers\converted_pdb\conformers_pdb\Oleanolic Acid_conf_29.pdb
REMARK  10 active torsions:
REMARK  status: ('A' for Active; 'I' for Inactive)
REMARK    1  A    between atoms: C4_1  and  C18_15
REMARK    2  A    between atoms: C6_3  and  C22_19
REMARK    3  A    between atoms: C7_4  and  C24_21
REMARK    4  A    between atoms: C12_9  and  C28_25
REMARK    5  A    between atoms: C12_9  and  C29_26
REMARK    6  A    between atoms: C17_14  and  C31_30
REMARK    7  A    between atoms: C20_17  and  O1_34
REMARK    8  A    between atoms: C27_24  and  C32_28
REMARK    9  A    between atoms: C27_24  and  C33_29
REMARK   10  A    between atoms: C31_30  and  O2_32
REMARK                            x       y       z     vdW  Elec       q    Type
REMARK                         _______ _______ _______ _____ _____    ______ ____
ROOT
ATOM      1  C4  UNK     0       0.631  -0.045  -1.112  0.00  0.00    +0.000 C 
ATOM      2  C5  UNK     0       1.299   0.667   0.133  0.00  0.00    +0.000 C 
ATOM      3  C6  UNK     0       2.846   1.063   0.013  0.00  0.00    +0.000 C 
ATOM      4  C7  UNK     0      -0.776  -0.695  -0.642  0.00  0.00    +0.000 C 
ATOM      5  C8  UNK     0       3.614  -0.221  -0.492  0.00  0.00    +0.000 C 
ATOM      6  C9  UNK     0       1.583  -1.151  -1.681  0.00  0.00    +0.000 C 
ATOM      7  C10 UNK     0      -1.631   0.314   0.143  0.00  0.00    +0.000 C 
ATOM      8  C11 UNK     0       3.041  -0.712  -1.848  0.00  0.00    +0.000 C 
ATOM      9  C12 UNK     0       5.194  -0.189  -0.399  0.00  0.00    +0.000 C 
ATOM     10  C13 UNK     0      -3.158   0.136   0.309  0.00  0.00    +0.000 C 
ATOM     11  C14 UNK     0       0.381   1.778   0.694  0.00  0.00    +0.000 C 
ATOM     12  C15 UNK     0      -1.618  -1.147  -1.875  0.00  0.00    +0.000 C 
ATOM     13  C16 UNK     0       3.377   1.419   1.442  0.00  0.00    +0.000 C 
ATOM     14  C17 UNK     0      -3.894  -0.834  -0.721  0.00  0.00    +0.000 C 
ATOM     15  C18 UNK     0       0.376   0.991  -2.256  0.00  0.00    +0.000 C 
ATOM     16  C19 UNK     0      -2.942  -1.801  -1.480  0.00  0.00    +0.000 C 
ATOM     17  C20 UNK     0       5.601   0.232   1.054  0.00  0.00    +0.000 C 
ATOM     18  C21 UNK     0      -1.067   1.378   0.772  0.00  0.00    +0.000 C 
ATOM     19  C22 UNK     0       3.080   2.306  -0.911  0.00  0.00    +0.000 C 
ATOM     20  C23 UNK     0       4.908   1.511   1.543  0.00  0.00    +0.000 C 
ATOM     21  C24 UNK     0      -0.563  -1.947   0.282  0.00  0.00    +0.000 C 
ATOM     22  C25 UNK     0      -3.524  -0.168   1.788  0.00  0.00    +0.000 C 
ATOM     23  C26 UNK     0      -4.934  -1.738   0.023  0.00  0.00    +0.000 C 
ATOM     24  C27 UNK     0      -5.062  -0.133   2.048  0.00  0.00    +0.000 C 
ATOM     25  C28 UNK     0       5.757  -1.623  -0.635  0.00  0.00    +0.000 C 
ATOM     26  C29 UNK     0       5.840   0.737  -1.463  0.00  0.00    +0.000 C 
ATOM     27  C30 UNK     0      -5.850  -0.949   0.969  0.00  0.00    +0.000 C 
ATOM     28  C32 UNK     0      -5.326  -0.728   3.450  0.00  0.00    +0.000 C 
ATOM     29  C33 UNK     0      -5.572   1.331   2.060  0.00  0.00    +0.000 C 
ENDROOT
BRANCH  14  30
ATOM     30  C31 UNK     0      -4.618  -0.003  -1.784  0.00  0.00    +0.000 C 
ATOM     31  O3  UNK     0      -4.083   1.036  -2.253  0.00  0.00    +0.000 OA
BRANCH  30  32
ATOM     32  O2  UNK     0      -5.808  -0.462  -2.352  0.00  0.00    +0.000 OA
ATOM     33  H81 UNK     0      -6.226   0.016  -3.144  0.00  0.00    +0.000 HD
ENDBRANCH  30  32
ENDBRANCH  14  30
BRANCH  17  34
ATOM     34  O1  UNK     0       6.997   0.340   1.201  0.00  0.00    +0.000 OA
ATOM     35  H80 UNK     0       7.290   1.171   0.741  0.00  0.00    +0.000 HD
ENDBRANCH  17  34
TORSDOF 3
