REMARK  Name = C:\Users\Maximilian\Desktop\Conformers\converted_pdb\conformers_pdb\Oleanolic Acid_conf_27.pdb
REMARK  10 active torsions:
REMARK  status: ('A' for Active; 'I' for Inactive)
REMARK    1  A    between atoms: C4_1  and  C18_15
REMARK    2  A    between atoms: C6_3  and  C22_19
REMARK    3  A    between atoms: C7_4  and  C24_21
REMARK    4  A    between atoms: C12_9  and  C28_25
REMARK    5  A    between atoms: C12_9  and  C29_26
REMARK    6  A    between atoms: C17_14  and  C31_30
REMARK    7  A    between atoms: C20_17  and  O1_34
REMARK    8  A    between atoms: C27_24  and  C32_28
REMARK    9  A    between atoms: C27_24  and  C33_29
REMARK   10  A    between atoms: C31_30  and  O2_32
REMARK                            x       y       z     vdW  Elec       q    Type
REMARK                         _______ _______ _______ _____ _____    ______ ____
ROOT
ATOM      1  C4  UNK     0       0.678  -0.685  -0.591  0.00  0.00    +0.000 C 
ATOM      2  C5  UNK     0       1.207   0.536   0.255  0.00  0.00    +0.000 C 
ATOM      3  C6  UNK     0       2.743   0.937   0.105  0.00  0.00    +0.000 C 
ATOM      4  C7  UNK     0      -0.799  -1.053  -0.043  0.00  0.00    +0.000 C 
ATOM      5  C8  UNK     0       3.591  -0.376   0.310  0.00  0.00    +0.000 C 
ATOM      6  C9  UNK     0       1.669  -1.885  -0.438  0.00  0.00    +0.000 C 
ATOM      7  C10 UNK     0      -1.729   0.144  -0.288  0.00  0.00    +0.000 C 
ATOM      8  C11 UNK     0       3.145  -1.513  -0.648  0.00  0.00    +0.000 C 
ATOM      9  C12 UNK     0       5.167  -0.182   0.416  0.00  0.00    +0.000 C 
ATOM     10  C13 UNK     0      -3.081  -0.084  -1.005  0.00  0.00    +0.000 C 
ATOM     11  C14 UNK     0       0.203   1.728   0.267  0.00  0.00    +0.000 C 
ATOM     12  C15 UNK     0      -1.364  -2.320  -0.759  0.00  0.00    +0.000 C 
ATOM     13  C16 UNK     0       3.100   1.969   1.251  0.00  0.00    +0.000 C 
ATOM     14  C17 UNK     0      -3.812  -1.430  -0.612  0.00  0.00    +0.000 C 
ATOM     15  C18 UNK     0       0.607  -0.325  -2.116  0.00  0.00    +0.000 C 
ATOM     16  C19 UNK     0      -2.827  -2.636  -0.430  0.00  0.00    +0.000 C 
ATOM     17  C20 UNK     0       5.535   1.193   1.091  0.00  0.00    +0.000 C 
ATOM     18  C21 UNK     0      -1.223   1.399  -0.123  0.00  0.00    +0.000 C 
ATOM     19  C22 UNK     0       3.054   1.609  -1.273  0.00  0.00    +0.000 C 
ATOM     20  C23 UNK     0       4.415   1.697   2.006  0.00  0.00    +0.000 C 
ATOM     21  C24 UNK     0      -0.827  -1.321   1.502  0.00  0.00    +0.000 C 
ATOM     22  C25 UNK     0      -4.098   1.106  -0.999  0.00  0.00    +0.000 C 
ATOM     23  C26 UNK     0      -4.593  -1.229   0.724  0.00  0.00    +0.000 C 
ATOM     24  C27 UNK     0      -4.911   1.282   0.313  0.00  0.00    +0.000 C 
ATOM     25  C28 UNK     0       5.737  -1.316   1.319  0.00  0.00    +0.000 C 
ATOM     26  C29 UNK     0       5.889  -0.313  -0.953  0.00  0.00    +0.000 C 
ATOM     27  C30 UNK     0      -5.585  -0.060   0.687  0.00  0.00    +0.000 C 
ATOM     28  C32 UNK     0      -4.032   1.791   1.482  0.00  0.00    +0.000 C 
ATOM     29  C33 UNK     0      -6.016   2.335   0.071  0.00  0.00    +0.000 C 
ENDROOT
BRANCH  14  30
ATOM     30  C31 UNK     0      -4.796  -1.832  -1.713  0.00  0.00    +0.000 C 
ATOM     31  O3  UNK     0      -4.515  -1.630  -2.927  0.00  0.00    +0.000 OA
BRANCH  30  32
ATOM     32  O2  UNK     0      -5.944  -2.563  -1.400  0.00  0.00    +0.000 OA
ATOM     33  H81 UNK     0      -6.564  -2.893  -2.129  0.00  0.00    +0.000 HD
ENDBRANCH  30  32
ENDBRANCH  14  30
BRANCH  17  34
ATOM     34  O1  UNK     0       5.846   2.185   0.141  0.00  0.00    +0.000 OA
ATOM     35  H80 UNK     0       6.405   2.865   0.606  0.00  0.00    +0.000 HD
ENDBRANCH  17  34
TORSDOF 3
