REMARK  Name = C:\Users\Maximilian\Desktop\Conformers\converted_pdb\conformers_pdb\Oleanolic Acid_conf_6.pdb
REMARK  10 active torsions:
REMARK  status: ('A' for Active; 'I' for Inactive)
REMARK    1  A    between atoms: C4_1  and  C18_15
REMARK    2  A    between atoms: C6_3  and  C22_19
REMARK    3  A    between atoms: C7_4  and  C24_21
REMARK    4  A    between atoms: C12_9  and  C28_25
REMARK    5  A    between atoms: C12_9  and  C29_26
REMARK    6  A    between atoms: C17_14  and  C31_30
REMARK    7  A    between atoms: C20_17  and  O1_34
REMARK    8  A    between atoms: C27_24  and  C32_28
REMARK    9  A    between atoms: C27_24  and  C33_29
REMARK   10  A    between atoms: C31_30  and  O2_32
REMARK                            x       y       z     vdW  Elec       q    Type
REMARK                         _______ _______ _______ _____ _____    ______ ____
ROOT
ATOM      1  C4  UNK     0      -0.658  -0.889   0.001  0.00  0.00    +0.000 C 
ATOM      2  C5  UNK     0      -1.211   0.581  -0.120  0.00  0.00    +0.000 C 
ATOM      3  C6  UNK     0      -2.745   0.802   0.229  0.00  0.00    +0.000 C 
ATOM      4  C7  UNK     0       0.834  -0.891  -0.606  0.00  0.00    +0.000 C 
ATOM      5  C8  UNK     0      -3.574  -0.217  -0.647  0.00  0.00    +0.000 C 
ATOM      6  C9  UNK     0      -1.602  -1.852  -0.786  0.00  0.00    +0.000 C 
ATOM      7  C10 UNK     0       1.704  -0.037   0.320  0.00  0.00    +0.000 C 
ATOM      8  C11 UNK     0      -3.096  -1.680  -0.454  0.00  0.00    +0.000 C 
ATOM      9  C12 UNK     0      -5.153  -0.034  -0.612  0.00  0.00    +0.000 C 
ATOM     10  C13 UNK     0       3.015  -0.637   0.872  0.00  0.00    +0.000 C 
ATOM     11  C14 UNK     0      -0.217   1.636   0.473  0.00  0.00    +0.000 C 
ATOM     12  C15 UNK     0       1.400  -2.344  -0.711  0.00  0.00    +0.000 C 
ATOM     13  C16 UNK     0      -3.144   2.277  -0.166  0.00  0.00    +0.000 C 
ATOM     14  C17 UNK     0       3.824  -1.436  -0.222  0.00  0.00    +0.000 C 
ATOM     15  C18 UNK     0      -0.622  -1.341   1.510  0.00  0.00    +0.000 C 
ATOM     16  C19 UNK     0       2.902  -2.423  -1.033  0.00  0.00    +0.000 C 
ATOM     17  C20 UNK     0      -5.558   1.482  -0.456  0.00  0.00    +0.000 C 
ATOM     18  C21 UNK     0       1.166   1.111   0.820  0.00  0.00    +0.000 C 
ATOM     19  C22 UNK     0      -3.027   0.616   1.751  0.00  0.00    +0.000 C 
ATOM     20  C23 UNK     0      -4.452   2.417  -0.963  0.00  0.00    +0.000 C 
ATOM     21  C24 UNK     0       0.928  -0.257  -2.034  0.00  0.00    +0.000 C 
ATOM     22  C25 UNK     0       3.964   0.358   1.612  0.00  0.00    +0.000 C 
ATOM     23  C26 UNK     0       4.557  -0.433  -1.205  0.00  0.00    +0.000 C 
ATOM     24  C27 UNK     0       4.785   1.310   0.676  0.00  0.00    +0.000 C 
ATOM     25  C28 UNK     0      -5.738  -0.532  -1.964  0.00  0.00    +0.000 C 
ATOM     26  C29 UNK     0      -5.826  -0.887   0.497  0.00  0.00    +0.000 C 
ATOM     27  C30 UNK     0       4.460   1.051  -0.816  0.00  0.00    +0.000 C 
ATOM     28  C32 UNK     0       4.457   2.785   0.997  0.00  0.00    +0.000 C 
ATOM     29  C33 UNK     0       6.300   1.107   0.918  0.00  0.00    +0.000 C 
ENDROOT
BRANCH  14  30
ATOM     30  C31 UNK     0       4.879  -2.317   0.458  0.00  0.00    +0.000 C 
ATOM     31  O3  UNK     0       4.714  -2.730   1.639  0.00  0.00    +0.000 OA
BRANCH  30  32
ATOM     32  O2  UNK     0       5.969  -2.794  -0.268  0.00  0.00    +0.000 OA
ATOM     33  H81 UNK     0       6.648  -3.414   0.158  0.00  0.00    +0.000 HD
ENDBRANCH  30  32
ENDBRANCH  14  30
BRANCH  17  34
ATOM     34  O1  UNK     0      -5.885   1.807   0.873  0.00  0.00    +0.000 OA
ATOM     35  H80 UNK     0      -6.360   2.679   0.855  0.00  0.00    +0.000 HD
ENDBRANCH  17  34
TORSDOF 3
