REMARK  Name = C:\Users\Maximilian\Desktop\Conformers\converted_pdb\conformers_pdb\Oleanolic Acid_conf_15.pdb
REMARK  10 active torsions:
REMARK  status: ('A' for Active; 'I' for Inactive)
REMARK    1  A    between atoms: C4_1  and  C18_15
REMARK    2  A    between atoms: C6_3  and  C22_19
REMARK    3  A    between atoms: C7_4  and  C24_21
REMARK    4  A    between atoms: C12_9  and  C28_25
REMARK    5  A    between atoms: C12_9  and  C29_26
REMARK    6  A    between atoms: C17_14  and  C31_30
REMARK    7  A    between atoms: C20_17  and  O1_34
REMARK    8  A    between atoms: C27_24  and  C32_28
REMARK    9  A    between atoms: C27_24  and  C33_29
REMARK   10  A    between atoms: C31_30  and  O2_32
REMARK                            x       y       z     vdW  Elec       q    Type
REMARK                         _______ _______ _______ _____ _____    ______ ____
ROOT
ATOM      1  C4  UNK     0      -0.586   0.854   0.092  0.00  0.00    +0.000 C 
ATOM      2  C5  UNK     0      -1.373  -0.426  -0.399  0.00  0.00    +0.000 C 
ATOM      3  C6  UNK     0      -2.969  -0.356  -0.487  0.00  0.00    +0.000 C 
ATOM      4  C7  UNK     0       0.899   0.378   0.507  0.00  0.00    +0.000 C 
ATOM      5  C8  UNK     0      -3.492   0.313   0.838  0.00  0.00    +0.000 C 
ATOM      6  C9  UNK     0      -1.322   1.538   1.292  0.00  0.00    +0.000 C 
ATOM      7  C10 UNK     0       1.569  -0.284  -0.719  0.00  0.00    +0.000 C 
ATOM      8  C11 UNK     0      -2.829   1.693   1.083  0.00  0.00    +0.000 C 
ATOM      9  C12 UNK     0      -5.066   0.292   1.060  0.00  0.00    +0.000 C 
ATOM     10  C13 UNK     0       3.088  -0.281  -0.912  0.00  0.00    +0.000 C 
ATOM     11  C14 UNK     0      -0.675  -1.035  -1.646  0.00  0.00    +0.000 C 
ATOM     12  C15 UNK     0       1.735   1.592   1.044  0.00  0.00    +0.000 C 
ATOM     13  C16 UNK     0      -3.527  -1.832  -0.581  0.00  0.00    +0.000 C 
ATOM     14  C17 UNK     0       3.733   1.068  -0.463  0.00  0.00    +0.000 C 
ATOM     15  C18 UNK     0      -0.495   1.915  -1.062  0.00  0.00    +0.000 C 
ATOM     16  C19 UNK     0       3.260   1.406   0.974  0.00  0.00    +0.000 C 
ATOM     17  C20 UNK     0      -5.716  -1.016   0.467  0.00  0.00    +0.000 C 
ATOM     18  C21 UNK     0       0.835  -1.046  -1.569  0.00  0.00    +0.000 C 
ATOM     19  C22 UNK     0      -3.479   0.414  -1.749  0.00  0.00    +0.000 C 
ATOM     20  C23 UNK     0      -4.698  -2.160   0.365  0.00  0.00    +0.000 C 
ATOM     21  C24 UNK     0       0.903  -0.718   1.633  0.00  0.00    +0.000 C 
ATOM     22  C25 UNK     0       3.712  -1.524  -0.230  0.00  0.00    +0.000 C 
ATOM     23  C26 UNK     0       5.283   0.978  -0.521  0.00  0.00    +0.000 C 
ATOM     24  C27 UNK     0       5.256  -1.587  -0.336  0.00  0.00    +0.000 C 
ATOM     25  C28 UNK     0      -5.347   0.294   2.590  0.00  0.00    +0.000 C 
ATOM     26  C29 UNK     0      -5.766   1.554   0.485  0.00  0.00    +0.000 C 
ATOM     27  C30 UNK     0       5.867  -0.261   0.175  0.00  0.00    +0.000 C 
ATOM     28  C32 UNK     0       5.766  -2.739   0.557  0.00  0.00    +0.000 C 
ATOM     29  C33 UNK     0       5.702  -1.883  -1.788  0.00  0.00    +0.000 C 
ENDROOT
BRANCH  14  30
ATOM     30  C31 UNK     0       3.341   2.206  -1.402  0.00  0.00    +0.000 C 
ATOM     31  O3  UNK     0       2.878   1.973  -2.552  0.00  0.00    +0.000 OA
BRANCH  30  32
ATOM     32  O2  UNK     0       3.560   3.527  -1.016  0.00  0.00    +0.000 OA
ATOM     33  H81 UNK     0       3.324   4.295  -1.633  0.00  0.00    +0.000 HD
ENDBRANCH  30  32
ENDBRANCH  14  30
BRANCH  17  34
ATOM     34  O1  UNK     0      -6.309  -0.791  -0.789  0.00  0.00    +0.000 OA
ATOM     35  H80 UNK     0      -6.902  -1.565  -0.979  0.00  0.00    +0.000 HD
ENDBRANCH  17  34
TORSDOF 3
