REMARK  Name = C:\Users\Maximilian\Desktop\Conformers\converted_pdb\conformers_pdb\Oleanolic Acid_conf_2.pdb
REMARK  10 active torsions:
REMARK  status: ('A' for Active; 'I' for Inactive)
REMARK    1  A    between atoms: C4_1  and  C18_15
REMARK    2  A    between atoms: C6_3  and  C22_19
REMARK    3  A    between atoms: C7_4  and  C24_21
REMARK    4  A    between atoms: C12_9  and  C28_25
REMARK    5  A    between atoms: C12_9  and  C29_26
REMARK    6  A    between atoms: C17_14  and  C31_30
REMARK    7  A    between atoms: C20_17  and  O1_34
REMARK    8  A    between atoms: C27_24  and  C32_28
REMARK    9  A    between atoms: C27_24  and  C33_29
REMARK   10  A    between atoms: C31_30  and  O2_32
REMARK                            x       y       z     vdW  Elec       q    Type
REMARK                         _______ _______ _______ _____ _____    ______ ____
ROOT
ATOM      1  C4  UNK     0       0.591  -0.904  -0.228  0.00  0.00    +0.000 C 
ATOM      2  C5  UNK     0       1.327   0.496  -0.163  0.00  0.00    +0.000 C 
ATOM      3  C6  UNK     0       2.893   0.526  -0.494  0.00  0.00    +0.000 C 
ATOM      4  C7  UNK     0      -0.868  -0.765   0.460  0.00  0.00    +0.000 C 
ATOM      5  C8  UNK     0       3.569  -0.598   0.382  0.00  0.00    +0.000 C 
ATOM      6  C9  UNK     0       1.451  -1.981   0.508  0.00  0.00    +0.000 C 
ATOM      7  C10 UNK     0      -1.643   0.398  -0.187  0.00  0.00    +0.000 C 
ATOM      8  C11 UNK     0       2.931  -1.984   0.103  0.00  0.00    +0.000 C 
ATOM      9  C12 UNK     0       5.150  -0.580   0.452  0.00  0.00    +0.000 C 
ATOM     10  C13 UNK     0      -3.179   0.443  -0.224  0.00  0.00    +0.000 C 
ATOM     11  C14 UNK     0       0.493   1.606  -0.851  0.00  0.00    +0.000 C 
ATOM     12  C15 UNK     0      -1.680  -2.097   0.325  0.00  0.00    +0.000 C 
ATOM     13  C16 UNK     0       3.468   1.906  -0.030  0.00  0.00    +0.000 C 
ATOM     14  C17 UNK     0      -3.889  -0.960  -0.277  0.00  0.00    +0.000 C 
ATOM     15  C18 UNK     0       0.428  -1.361  -1.715  0.00  0.00    +0.000 C 
ATOM     16  C19 UNK     0      -3.170  -1.962   0.659  0.00  0.00    +0.000 C 
ATOM     17  C20 UNK     0       5.608   0.856   0.873  0.00  0.00    +0.000 C 
ATOM     18  C21 UNK     0      -0.993   1.499  -0.636  0.00  0.00    +0.000 C 
ATOM     19  C22 UNK     0       3.196   0.367  -2.024  0.00  0.00    +0.000 C 
ATOM     20  C23 UNK     0       5.004   1.973   0.006  0.00  0.00    +0.000 C 
ATOM     21  C24 UNK     0      -0.789  -0.446   1.991  0.00  0.00    +0.000 C 
ATOM     22  C25 UNK     0      -3.756   1.326   0.907  0.00  0.00    +0.000 C 
ATOM     23  C26 UNK     0      -5.383  -0.841   0.192  0.00  0.00    +0.000 C 
ATOM     24  C27 UNK     0      -5.258   1.678   0.655  0.00  0.00    +0.000 C 
ATOM     25  C28 UNK     0       5.636  -1.556   1.561  0.00  0.00    +0.000 C 
ATOM     26  C29 UNK     0       5.823  -1.027  -0.872  0.00  0.00    +0.000 C 
ATOM     27  C30 UNK     0      -5.985   0.535  -0.123  0.00  0.00    +0.000 C 
ATOM     28  C32 UNK     0      -5.955   1.907   2.015  0.00  0.00    +0.000 C 
ATOM     29  C33 UNK     0      -5.358   2.985  -0.162  0.00  0.00    +0.000 C 
ENDROOT
BRANCH  14  30
ATOM     30  C31 UNK     0      -3.863  -1.517  -1.701  0.00  0.00    +0.000 C 
ATOM     31  O3  UNK     0      -4.491  -2.575  -1.977  0.00  0.00    +0.000 OA
BRANCH  30  32
ATOM     32  O2  UNK     0      -3.092  -0.914  -2.693  0.00  0.00    +0.000 OA
ATOM     33  H81 UNK     0      -3.034  -1.312  -3.622  0.00  0.00    +0.000 HD
ENDBRANCH  30  32
ENDBRANCH  14  30
BRANCH  17  34
ATOM     34  O1  UNK     0       7.011   0.967   0.922  0.00  0.00    +0.000 OA
ATOM     35  H80 UNK     0       7.353   1.038  -0.006  0.00  0.00    +0.000 HD
ENDBRANCH  17  34
TORSDOF 3
