REMARK  Name = C:\Users\Maximilian\Desktop\Conformers\converted_pdb\conformers_pdb\Oleanolic Acid_conf_17.pdb
REMARK  10 active torsions:
REMARK  status: ('A' for Active; 'I' for Inactive)
REMARK    1  A    between atoms: C4_1  and  C18_15
REMARK    2  A    between atoms: C6_3  and  C22_19
REMARK    3  A    between atoms: C7_4  and  C24_21
REMARK    4  A    between atoms: C12_9  and  C28_25
REMARK    5  A    between atoms: C12_9  and  C29_26
REMARK    6  A    between atoms: C17_14  and  C31_30
REMARK    7  A    between atoms: C20_17  and  O1_34
REMARK    8  A    between atoms: C27_24  and  C32_28
REMARK    9  A    between atoms: C27_24  and  C33_29
REMARK   10  A    between atoms: C31_30  and  O2_32
REMARK                            x       y       z     vdW  Elec       q    Type
REMARK                         _______ _______ _______ _____ _____    ______ ____
ROOT
ATOM      1  C4  UNK     0       0.678   0.000  -1.005  0.00  0.00    +0.000 C 
ATOM      2  C5  UNK     0       1.317   0.772   0.216  0.00  0.00    +0.000 C 
ATOM      3  C6  UNK     0       2.893   0.891   0.231  0.00  0.00    +0.000 C 
ATOM      4  C7  UNK     0      -0.761  -0.532  -0.512  0.00  0.00    +0.000 C 
ATOM      5  C8  UNK     0       3.427  -0.579   0.372  0.00  0.00    +0.000 C 
ATOM      6  C9  UNK     0       1.631  -1.152  -1.521  0.00  0.00    +0.000 C 
ATOM      7  C10 UNK     0      -1.575   0.651   0.076  0.00  0.00    +0.000 C 
ATOM      8  C11 UNK     0       2.859  -1.580  -0.678  0.00  0.00    +0.000 C 
ATOM      9  C12 UNK     0       4.971  -0.737   0.673  0.00  0.00    +0.000 C 
ATOM     10  C13 UNK     0      -3.105   0.593   0.071  0.00  0.00    +0.000 C 
ATOM     11  C14 UNK     0       0.510   2.046   0.530  0.00  0.00    +0.000 C 
ATOM     12  C15 UNK     0      -1.606  -1.195  -1.673  0.00  0.00    +0.000 C 
ATOM     13  C16 UNK     0       3.344   1.693   1.495  0.00  0.00    +0.000 C 
ATOM     14  C17 UNK     0      -3.686   0.346  -1.378  0.00  0.00    +0.000 C 
ATOM     15  C18 UNK     0       0.455   0.957  -2.228  0.00  0.00    +0.000 C 
ATOM     16  C19 UNK     0      -2.625  -0.257  -2.351  0.00  0.00    +0.000 C 
ATOM     17  C20 UNK     0       5.316   0.132   1.928  0.00  0.00    +0.000 C 
ATOM     18  C21 UNK     0      -0.975   1.761   0.589  0.00  0.00    +0.000 C 
ATOM     19  C22 UNK     0       3.418   1.620  -1.031  0.00  0.00    +0.000 C 
ATOM     20  C23 UNK     0       4.846   1.594   1.806  0.00  0.00    +0.000 C 
ATOM     21  C24 UNK     0      -0.575  -1.599   0.627  0.00  0.00    +0.000 C 
ATOM     22  C25 UNK     0      -3.624  -0.420   1.119  0.00  0.00    +0.000 C 
ATOM     23  C26 UNK     0      -4.916  -0.616  -1.314  0.00  0.00    +0.000 C 
ATOM     24  C27 UNK     0      -5.179  -0.429   1.237  0.00  0.00    +0.000 C 
ATOM     25  C28 UNK     0       5.264  -2.219   1.041  0.00  0.00    +0.000 C 
ATOM     26  C29 UNK     0       5.883  -0.368  -0.533  0.00  0.00    +0.000 C 
ATOM     27  C30 UNK     0      -5.857  -0.246  -0.158  0.00  0.00    +0.000 C 
ATOM     28  C32 UNK     0      -5.617  -1.779   1.848  0.00  0.00    +0.000 C 
ATOM     29  C33 UNK     0      -5.642   0.698   2.189  0.00  0.00    +0.000 C 
ENDROOT
BRANCH  14  30
ATOM     30  C31 UNK     0      -4.115   1.687  -1.973  0.00  0.00    +0.000 C 
ATOM     31  O3  UNK     0      -3.354   2.689  -1.879  0.00  0.00    +0.000 OA
BRANCH  30  32
ATOM     32  O2  UNK     0      -5.310   1.814  -2.679  0.00  0.00    +0.000 OA
ATOM     33  H81 UNK     0      -5.580   2.699  -3.091  0.00  0.00    +0.000 HD
ENDBRANCH  30  32
ENDBRANCH  14  30
BRANCH  17  34
ATOM     34  O1  UNK     0       6.686   0.070   2.251  0.00  0.00    +0.000 OA
ATOM     35  H80 UNK     0       7.185   0.624   1.597  0.00  0.00    +0.000 HD
ENDBRANCH  17  34
TORSDOF 3
