REMARK  Name = C:\Users\Maximilian\Desktop\Conformers\converted_pdb\conformers_pdb\Oleanolic Acid_conf_31.pdb
REMARK  10 active torsions:
REMARK  status: ('A' for Active; 'I' for Inactive)
REMARK    1  A    between atoms: C4_1  and  C18_15
REMARK    2  A    between atoms: C6_3  and  C22_19
REMARK    3  A    between atoms: C7_4  and  C24_21
REMARK    4  A    between atoms: C12_9  and  C28_25
REMARK    5  A    between atoms: C12_9  and  C29_26
REMARK    6  A    between atoms: C17_14  and  C31_30
REMARK    7  A    between atoms: C20_17  and  O1_34
REMARK    8  A    between atoms: C27_24  and  C32_28
REMARK    9  A    between atoms: C27_24  and  C33_29
REMARK   10  A    between atoms: C31_30  and  O2_32
REMARK                            x       y       z     vdW  Elec       q    Type
REMARK                         _______ _______ _______ _____ _____    ______ ____
ROOT
ATOM      1  C4  UNK     0      -0.531  -0.174   0.823  0.00  0.00    +0.000 C 
ATOM      2  C5  UNK     0      -1.428   0.138  -0.433  0.00  0.00    +0.000 C 
ATOM      3  C6  UNK     0      -2.973   0.418  -0.159  0.00  0.00    +0.000 C 
ATOM      4  C7  UNK     0       0.900  -0.693   0.301  0.00  0.00    +0.000 C 
ATOM      5  C8  UNK     0      -3.523  -0.785   0.699  0.00  0.00    +0.000 C 
ATOM      6  C9  UNK     0      -1.227  -1.263   1.705  0.00  0.00    +0.000 C 
ATOM      7  C10 UNK     0       1.549   0.446  -0.490  0.00  0.00    +0.000 C 
ATOM      8  C11 UNK     0      -2.707  -0.985   2.000  0.00  0.00    +0.000 C 
ATOM      9  C12 UNK     0      -5.100  -0.838   0.907  0.00  0.00    +0.000 C 
ATOM     10  C13 UNK     0       3.063   0.662  -0.530  0.00  0.00    +0.000 C 
ATOM     11  C14 UNK     0      -0.728   1.140  -1.407  0.00  0.00    +0.000 C 
ATOM     12  C15 UNK     0       1.785  -1.167   1.505  0.00  0.00    +0.000 C 
ATOM     13  C16 UNK     0      -3.730   0.463  -1.542  0.00  0.00    +0.000 C 
ATOM     14  C17 UNK     0       3.835   0.178   0.752  0.00  0.00    +0.000 C 
ATOM     15  C18 UNK     0      -0.335   1.131   1.684  0.00  0.00    +0.000 C 
ATOM     16  C19 UNK     0       3.288  -1.194   1.211  0.00  0.00    +0.000 C 
ATOM     17  C20 UNK     0      -5.871  -0.252  -0.336  0.00  0.00    +0.000 C 
ATOM     18  C21 UNK     0       0.782   1.224  -1.294  0.00  0.00    +0.000 C 
ATOM     19  C22 UNK     0      -3.204   1.782   0.563  0.00  0.00    +0.000 C 
ATOM     20  C23 UNK     0      -5.031  -0.356  -1.616  0.00  0.00    +0.000 C 
ATOM     21  C24 UNK     0       0.811  -1.897  -0.695  0.00  0.00    +0.000 C 
ATOM     22  C25 UNK     0       3.677   0.054  -1.810  0.00  0.00    +0.000 C 
ATOM     23  C26 UNK     0       5.365   0.005   0.446  0.00  0.00    +0.000 C 
ATOM     24  C27 UNK     0       5.133   0.570  -2.050  0.00  0.00    +0.000 C 
ATOM     25  C28 UNK     0      -5.523  -2.328   1.053  0.00  0.00    +0.000 C 
ATOM     26  C29 UNK     0      -5.554  -0.124   2.209  0.00  0.00    +0.000 C 
ATOM     27  C30 UNK     0       5.847   0.905  -0.700  0.00  0.00    +0.000 C 
ATOM     28  C32 UNK     0       5.933  -0.511  -2.810  0.00  0.00    +0.000 C 
ATOM     29  C33 UNK     0       5.096   1.844  -2.923  0.00  0.00    +0.000 C 
ENDROOT
BRANCH  14  30
ATOM     30  C31 UNK     0       3.690   1.179   1.897  0.00  0.00    +0.000 C 
ATOM     31  O3  UNK     0       3.152   2.307   1.720  0.00  0.00    +0.000 OA
BRANCH  30  32
ATOM     32  O2  UNK     0       4.191   0.858   3.159  0.00  0.00    +0.000 OA
ATOM     33  H81 UNK     0       4.112   1.511   3.927  0.00  0.00    +0.000 HD
ENDBRANCH  30  32
ENDBRANCH  14  30
BRANCH  17  34
ATOM     34  O1  UNK     0      -6.269   1.080  -0.131  0.00  0.00    +0.000 OA
ATOM     35  H80 UNK     0      -6.911   1.313  -0.851  0.00  0.00    +0.000 HD
ENDBRANCH  17  34
TORSDOF 3
