REMARK  Name = C:\Users\Maximilian\Desktop\Conformers\converted_pdb\conformers_pdb\Oleanolic Acid_conf_23.pdb
REMARK  10 active torsions:
REMARK  status: ('A' for Active; 'I' for Inactive)
REMARK    1  A    between atoms: C4_1  and  C18_15
REMARK    2  A    between atoms: C6_3  and  C22_19
REMARK    3  A    between atoms: C7_4  and  C24_21
REMARK    4  A    between atoms: C12_9  and  C28_25
REMARK    5  A    between atoms: C12_9  and  C29_26
REMARK    6  A    between atoms: C17_14  and  C31_30
REMARK    7  A    between atoms: C20_17  and  O1_34
REMARK    8  A    between atoms: C27_24  and  C32_28
REMARK    9  A    between atoms: C27_24  and  C33_29
REMARK   10  A    between atoms: C31_30  and  O2_32
REMARK                            x       y       z     vdW  Elec       q    Type
REMARK                         _______ _______ _______ _____ _____    ______ ____
ROOT
ATOM      1  C4  UNK     0       0.579  -0.392   0.589  0.00  0.00    +0.000 C 
ATOM      2  C5  UNK     0       1.308   0.071  -0.731  0.00  0.00    +0.000 C 
ATOM      3  C6  UNK     0       2.829  -0.357  -0.888  0.00  0.00    +0.000 C 
ATOM      4  C7  UNK     0      -0.836   0.375   0.657  0.00  0.00    +0.000 C 
ATOM      5  C8  UNK     0       3.580   0.131   0.412  0.00  0.00    +0.000 C 
ATOM      6  C9  UNK     0       1.467  -0.062   1.834  0.00  0.00    +0.000 C 
ATOM      7  C10 UNK     0      -1.665  -0.077  -0.560  0.00  0.00    +0.000 C 
ATOM      8  C11 UNK     0       2.944  -0.470   1.693  0.00  0.00    +0.000 C 
ATOM      9  C12 UNK     0       5.161   0.088   0.356  0.00  0.00    +0.000 C 
ATOM     10  C13 UNK     0      -3.188  -0.210  -0.513  0.00  0.00    +0.000 C 
ATOM     11  C14 UNK     0       0.432  -0.143  -2.005  0.00  0.00    +0.000 C 
ATOM     12  C15 UNK     0      -1.560   0.115   2.030  0.00  0.00    +0.000 C 
ATOM     13  C16 UNK     0       3.427   0.412  -2.110  0.00  0.00    +0.000 C 
ATOM     14  C17 UNK     0      -3.695  -0.690   0.881  0.00  0.00    +0.000 C 
ATOM     15  C18 UNK     0       0.348  -1.945   0.564  0.00  0.00    +0.000 C 
ATOM     16  C19 UNK     0      -3.091   0.219   1.981  0.00  0.00    +0.000 C 
ATOM     17  C20 UNK     0       5.639   0.835  -0.930  0.00  0.00    +0.000 C 
ATOM     18  C21 UNK     0      -1.061  -0.224  -1.766  0.00  0.00    +0.000 C 
ATOM     19  C22 UNK     0       2.978  -1.897  -1.143  0.00  0.00    +0.000 C 
ATOM     20  C23 UNK     0       4.957   0.332  -2.208  0.00  0.00    +0.000 C 
ATOM     21  C24 UNK     0      -0.707   1.932   0.527  0.00  0.00    +0.000 C 
ATOM     22  C25 UNK     0      -3.840   1.116  -0.984  0.00  0.00    +0.000 C 
ATOM     23  C26 UNK     0      -5.247  -0.658   0.933  0.00  0.00    +0.000 C 
ATOM     24  C27 UNK     0      -5.388   1.112  -0.925  0.00  0.00    +0.000 C 
ATOM     25  C28 UNK     0       5.750   0.858   1.572  0.00  0.00    +0.000 C 
ATOM     26  C29 UNK     0       5.737  -1.351   0.407  0.00  0.00    +0.000 C 
ATOM     27  C30 UNK     0      -5.858   0.677   0.483  0.00  0.00    +0.000 C 
ATOM     28  C32 UNK     0      -5.898   2.546  -1.189  0.00  0.00    +0.000 C 
ATOM     29  C33 UNK     0      -5.982   0.191  -2.017  0.00  0.00    +0.000 C 
ENDROOT
BRANCH  14  30
ATOM     30  C31 UNK     0      -3.290  -2.141   1.134  0.00  0.00    +0.000 C 
ATOM     31  O3  UNK     0      -3.405  -2.635   2.289  0.00  0.00    +0.000 OA
BRANCH  30  32
ATOM     32  O2  UNK     0      -2.854  -2.957   0.090  0.00  0.00    +0.000 OA
ATOM     33  H81 UNK     0      -2.606  -3.926   0.254  0.00  0.00    +0.000 HD
ENDBRANCH  30  32
ENDBRANCH  14  30
BRANCH  17  34
ATOM     34  O1  UNK     0       7.033   0.715  -1.078  0.00  0.00    +0.000 OA
ATOM     35  H80 UNK     0       7.350   1.536  -1.542  0.00  0.00    +0.000 HD
ENDBRANCH  17  34
TORSDOF 3
