REMARK  Name = C:\Users\Maximilian\Desktop\Conformers\converted_pdb\conformers_pdb\Oleanolic Acid_conf_19.pdb
REMARK  10 active torsions:
REMARK  status: ('A' for Active; 'I' for Inactive)
REMARK    1  A    between atoms: C4_1  and  C18_15
REMARK    2  A    between atoms: C6_3  and  C22_19
REMARK    3  A    between atoms: C7_4  and  C24_21
REMARK    4  A    between atoms: C12_9  and  C28_25
REMARK    5  A    between atoms: C12_9  and  C29_26
REMARK    6  A    between atoms: C17_14  and  C31_30
REMARK    7  A    between atoms: C20_17  and  O1_34
REMARK    8  A    between atoms: C27_24  and  C32_28
REMARK    9  A    between atoms: C27_24  and  C33_29
REMARK   10  A    between atoms: C31_30  and  O2_32
REMARK                            x       y       z     vdW  Elec       q    Type
REMARK                         _______ _______ _______ _____ _____    ______ ____
ROOT
ATOM      1  C4  UNK     0       0.663  -0.947   0.155  0.00  0.00    +0.000 C 
ATOM      2  C5  UNK     0       1.340   0.356  -0.439  0.00  0.00    +0.000 C 
ATOM      3  C6  UNK     0       2.922   0.357  -0.688  0.00  0.00    +0.000 C 
ATOM      4  C7  UNK     0      -0.818  -0.571   0.690  0.00  0.00    +0.000 C 
ATOM      5  C8  UNK     0       3.611  -0.249   0.590  0.00  0.00    +0.000 C 
ATOM      6  C9  UNK     0       1.546  -1.516   1.312  0.00  0.00    +0.000 C 
ATOM      7  C10 UNK     0      -1.606   0.179  -0.407  0.00  0.00    +0.000 C 
ATOM      8  C11 UNK     0       3.027  -1.639   0.949  0.00  0.00    +0.000 C 
ATOM      9  C12 UNK     0       5.197  -0.161   0.641  0.00  0.00    +0.000 C 
ATOM     10  C13 UNK     0      -3.141   0.190  -0.447  0.00  0.00    +0.000 C 
ATOM     11  C14 UNK     0       0.503   0.894  -1.620  0.00  0.00    +0.000 C 
ATOM     12  C15 UNK     0      -1.601  -1.860   1.113  0.00  0.00    +0.000 C 
ATOM     13  C16 UNK     0       3.399   1.855  -0.869  0.00  0.00    +0.000 C 
ATOM     14  C17 UNK     0      -3.838  -1.104   0.120  0.00  0.00    +0.000 C 
ATOM     15  C18 UNK     0       0.544  -2.050  -0.951  0.00  0.00    +0.000 C 
ATOM     16  C19 UNK     0      -3.095  -1.625   1.373  0.00  0.00    +0.000 C 
ATOM     17  C20 UNK     0       5.725   1.153  -0.055  0.00  0.00    +0.000 C 
ATOM     18  C21 UNK     0      -0.970   0.952  -1.324  0.00  0.00    +0.000 C 
ATOM     19  C22 UNK     0       3.335  -0.422  -1.980  0.00  0.00    +0.000 C 
ATOM     20  C23 UNK     0       4.654   2.254  -0.070  0.00  0.00    +0.000 C 
ATOM     21  C24 UNK     0      -0.783   0.366   1.945  0.00  0.00    +0.000 C 
ATOM     22  C25 UNK     0      -3.726   1.479   0.176  0.00  0.00    +0.000 C 
ATOM     23  C26 UNK     0      -5.320  -0.787   0.530  0.00  0.00    +0.000 C 
ATOM     24  C27 UNK     0      -5.230   1.670  -0.202  0.00  0.00    +0.000 C 
ATOM     25  C28 UNK     0       5.638  -0.104   2.131  0.00  0.00    +0.000 C 
ATOM     26  C29 UNK     0       5.884  -1.411   0.029  0.00  0.00    +0.000 C 
ATOM     27  C30 UNK     0      -5.952   0.293  -0.360  0.00  0.00    +0.000 C 
ATOM     28  C32 UNK     0      -5.923   2.497   0.904  0.00  0.00    +0.000 C 
ATOM     29  C33 UNK     0      -5.343   2.455  -1.527  0.00  0.00    +0.000 C 
ENDROOT
BRANCH  14  30
ATOM     30  C31 UNK     0      -3.843  -2.213  -0.934  0.00  0.00    +0.000 C 
ATOM     31  O3  UNK     0      -3.059  -2.172  -1.921  0.00  0.00    +0.000 OA
BRANCH  30  32
ATOM     32  O2  UNK     0      -4.655  -3.332  -0.766  0.00  0.00    +0.000 OA
ATOM     33  H81 UNK     0      -4.644  -4.091  -1.437  0.00  0.00    +0.000 HD
ENDBRANCH  30  32
ENDBRANCH  14  30
BRANCH  17  34
ATOM     34  O1  UNK     0       6.188   0.912  -1.361  0.00  0.00    +0.000 OA
ATOM     35  H80 UNK     0       6.673   1.726  -1.656  0.00  0.00    +0.000 HD
ENDBRANCH  17  34
TORSDOF 3
