REMARK  Name = C:\Users\Maximilian\Desktop\Conformers\converted_pdb\conformers_pdb\Oleanolic Acid_conf_7.pdb
REMARK  10 active torsions:
REMARK  status: ('A' for Active; 'I' for Inactive)
REMARK    1  A    between atoms: C4_1  and  C18_15
REMARK    2  A    between atoms: C6_3  and  C22_19
REMARK    3  A    between atoms: C7_4  and  C24_21
REMARK    4  A    between atoms: C12_9  and  C28_25
REMARK    5  A    between atoms: C12_9  and  C29_26
REMARK    6  A    between atoms: C17_14  and  C31_30
REMARK    7  A    between atoms: C20_17  and  O1_34
REMARK    8  A    between atoms: C27_24  and  C32_28
REMARK    9  A    between atoms: C27_24  and  C33_29
REMARK   10  A    between atoms: C31_30  and  O2_32
REMARK                            x       y       z     vdW  Elec       q    Type
REMARK                         _______ _______ _______ _____ _____    ______ ____
ROOT
ATOM      1  C4  UNK     0       0.614  -0.670   0.180  0.00  0.00    +0.000 C 
ATOM      2  C5  UNK     0       1.303   0.582  -0.487  0.00  0.00    +0.000 C 
ATOM      3  C6  UNK     0       2.844   0.439  -0.846  0.00  0.00    +0.000 C 
ATOM      4  C7  UNK     0      -0.839  -0.208   0.697  0.00  0.00    +0.000 C 
ATOM      5  C8  UNK     0       3.583  -0.018   0.473  0.00  0.00    +0.000 C 
ATOM      6  C9  UNK     0       1.497  -1.198   1.359  0.00  0.00    +0.000 C 
ATOM      7  C10 UNK     0      -1.657   0.211  -0.539  0.00  0.00    +0.000 C 
ATOM      8  C11 UNK     0       2.992  -1.344   1.023  0.00  0.00    +0.000 C 
ATOM      9  C12 UNK     0       5.165   0.056   0.444  0.00  0.00    +0.000 C 
ATOM     10  C13 UNK     0      -3.170   0.007  -0.632  0.00  0.00    +0.000 C 
ATOM     11  C14 UNK     0       0.424   1.219  -1.609  0.00  0.00    +0.000 C 
ATOM     12  C15 UNK     0      -1.531  -1.341   1.541  0.00  0.00    +0.000 C 
ATOM     13  C16 UNK     0       3.383   1.853  -1.240  0.00  0.00    +0.000 C 
ATOM     14  C17 UNK     0      -3.639  -1.290   0.099  0.00  0.00    +0.000 C 
ATOM     15  C18 UNK     0       0.469  -1.832  -0.866  0.00  0.00    +0.000 C 
ATOM     16  C19 UNK     0      -3.066  -1.298   1.538  0.00  0.00    +0.000 C 
ATOM     17  C20 UNK     0       5.581   1.495  -0.013  0.00  0.00    +0.000 C 
ATOM     18  C21 UNK     0      -1.060   0.924  -1.527  0.00  0.00    +0.000 C 
ATOM     19  C22 UNK     0       3.077  -0.538  -2.049  0.00  0.00    +0.000 C 
ATOM     20  C23 UNK     0       4.913   1.938  -1.325  0.00  0.00    +0.000 C 
ATOM     21  C24 UNK     0      -0.797   1.055   1.624  0.00  0.00    +0.000 C 
ATOM     22  C25 UNK     0      -3.895   1.287  -0.142  0.00  0.00    +0.000 C 
ATOM     23  C26 UNK     0      -5.190  -1.369   0.128  0.00  0.00    +0.000 C 
ATOM     24  C27 UNK     0      -5.440   1.175  -0.147  0.00  0.00    +0.000 C 
ATOM     25  C28 UNK     0       5.725  -0.147   1.880  0.00  0.00    +0.000 C 
ATOM     26  C29 UNK     0       5.810  -1.031  -0.453  0.00  0.00    +0.000 C 
ATOM     27  C30 UNK     0      -5.873  -0.090   0.633  0.00  0.00    +0.000 C 
ATOM     28  C32 UNK     0      -6.028   2.415   0.562  0.00  0.00    +0.000 C 
ATOM     29  C33 UNK     0      -5.990   1.152  -1.593  0.00  0.00    +0.000 C 
ENDROOT
BRANCH  14  30
ATOM     30  C31 UNK     0      -3.166  -2.541  -0.638  0.00  0.00    +0.000 C 
ATOM     31  O3  UNK     0      -2.757  -2.481  -1.830  0.00  0.00    +0.000 OA
BRANCH  30  32
ATOM     32  O2  UNK     0      -3.243  -3.782  -0.010  0.00  0.00    +0.000 OA
ATOM     33  H81 UNK     0      -2.950  -4.626  -0.489  0.00  0.00    +0.000 HD
ENDBRANCH  30  32
ENDBRANCH  14  30
BRANCH  17  34
ATOM     34  O1  UNK     0       6.981   1.639  -0.093  0.00  0.00    +0.000 OA
ATOM     35  H80 UNK     0       7.293   1.188  -0.920  0.00  0.00    +0.000 HD
ENDBRANCH  17  34
TORSDOF 3
