REMARK  Name = C:\Users\Maximilian\Desktop\Conformers\converted_pdb\conformers_pdb\Oleanolic Acid_conf_4.pdb
REMARK  10 active torsions:
REMARK  status: ('A' for Active; 'I' for Inactive)
REMARK    1  A    between atoms: C4_1  and  C18_15
REMARK    2  A    between atoms: C6_3  and  C22_19
REMARK    3  A    between atoms: C7_4  and  C24_21
REMARK    4  A    between atoms: C12_9  and  C28_25
REMARK    5  A    between atoms: C12_9  and  C29_26
REMARK    6  A    between atoms: C17_14  and  C31_30
REMARK    7  A    between atoms: C20_17  and  O1_34
REMARK    8  A    between atoms: C27_24  and  C32_28
REMARK    9  A    between atoms: C27_24  and  C33_29
REMARK   10  A    between atoms: C31_30  and  O2_32
REMARK                            x       y       z     vdW  Elec       q    Type
REMARK                         _______ _______ _______ _____ _____    ______ ____
ROOT
ATOM      1  C4  UNK     0      -0.675   0.418   0.935  0.00  0.00    +0.000 C 
ATOM      2  C5  UNK     0      -1.376   0.182  -0.465  0.00  0.00    +0.000 C 
ATOM      3  C6  UNK     0      -2.983   0.207  -0.533  0.00  0.00    +0.000 C 
ATOM      4  C7  UNK     0       0.902   0.005   0.826  0.00  0.00    +0.000 C 
ATOM      5  C8  UNK     0      -3.528  -0.714   0.617  0.00  0.00    +0.000 C 
ATOM      6  C9  UNK     0      -1.412  -0.451   2.013  0.00  0.00    +0.000 C 
ATOM      7  C10 UNK     0       1.544   0.503  -0.502  0.00  0.00    +0.000 C 
ATOM      8  C11 UNK     0      -2.941  -0.306   1.999  0.00  0.00    +0.000 C 
ATOM      9  C12 UNK     0      -5.094  -1.004   0.621  0.00  0.00    +0.000 C 
ATOM     10  C13 UNK     0       3.075   0.556  -0.697  0.00  0.00    +0.000 C 
ATOM     11  C14 UNK     0      -0.691   1.042  -1.549  0.00  0.00    +0.000 C 
ATOM     12  C15 UNK     0       1.733   0.603   2.010  0.00  0.00    +0.000 C 
ATOM     13  C16 UNK     0      -3.438  -0.396  -1.927  0.00  0.00    +0.000 C 
ATOM     14  C17 UNK     0       3.878   0.989   0.582  0.00  0.00    +0.000 C 
ATOM     15  C18 UNK     0      -0.798   1.918   1.362  0.00  0.00    +0.000 C 
ATOM     16  C19 UNK     0       3.258   0.410   1.889  0.00  0.00    +0.000 C 
ATOM     17  C20 UNK     0      -5.687  -0.997  -0.841  0.00  0.00    +0.000 C 
ATOM     18  C21 UNK     0       0.791   0.833  -1.578  0.00  0.00    +0.000 C 
ATOM     19  C22 UNK     0      -3.570   1.653  -0.427  0.00  0.00    +0.000 C 
ATOM     20  C23 UNK     0      -4.631  -1.369  -1.883  0.00  0.00    +0.000 C 
ATOM     21  C24 UNK     0       1.072  -1.548   0.876  0.00  0.00    +0.000 C 
ATOM     22  C25 UNK     0       3.633  -0.717  -1.384  0.00  0.00    +0.000 C 
ATOM     23  C26 UNK     0       5.357   0.468   0.497  0.00  0.00    +0.000 C 
ATOM     24  C27 UNK     0       5.130  -0.585  -1.822  0.00  0.00    +0.000 C 
ATOM     25  C28 UNK     0      -5.324  -2.434   1.200  0.00  0.00    +0.000 C 
ATOM     26  C29 UNK     0      -5.887  -0.023   1.526  0.00  0.00    +0.000 C 
ATOM     27  C30 UNK     0       5.886   0.460  -0.945  0.00  0.00    +0.000 C 
ATOM     28  C32 UNK     0       5.817  -1.968  -1.686  0.00  0.00    +0.000 C 
ATOM     29  C33 UNK     0       5.217  -0.161  -3.311  0.00  0.00    +0.000 C 
ENDROOT
BRANCH  14  30
ATOM     30  C31 UNK     0       3.885   2.521   0.650  0.00  0.00    +0.000 C 
ATOM     31  O3  UNK     0       2.802   3.168   0.618  0.00  0.00    +0.000 OA
BRANCH  30  32
ATOM     32  O2  UNK     0       5.085   3.236   0.670  0.00  0.00    +0.000 OA
ATOM     33  H81 UNK     0       5.089   4.248   0.696  0.00  0.00    +0.000 HD
ENDBRANCH  30  32
ENDBRANCH  14  30
BRANCH  17  34
ATOM     34  O1  UNK     0      -6.258   0.245  -1.189  0.00  0.00    +0.000 OA
ATOM     35  H80 UNK     0      -7.230   0.193  -0.996  0.00  0.00    +0.000 HD
ENDBRANCH  17  34
TORSDOF 3
