REMARK  Name = C:\Users\Maximilian\Desktop\Conformers\converted_pdb\conformers_pdb\Oleanolic Acid_conf_10.pdb
REMARK  10 active torsions:
REMARK  status: ('A' for Active; 'I' for Inactive)
REMARK    1  A    between atoms: C4_1  and  C18_15
REMARK    2  A    between atoms: C6_3  and  C22_19
REMARK    3  A    between atoms: C7_4  and  C24_21
REMARK    4  A    between atoms: C12_9  and  C28_25
REMARK    5  A    between atoms: C12_9  and  C29_26
REMARK    6  A    between atoms: C17_14  and  C31_30
REMARK    7  A    between atoms: C20_17  and  O1_34
REMARK    8  A    between atoms: C27_24  and  C32_28
REMARK    9  A    between atoms: C27_24  and  C33_29
REMARK   10  A    between atoms: C31_30  and  O2_32
REMARK                            x       y       z     vdW  Elec       q    Type
REMARK                         _______ _______ _______ _____ _____    ______ ____
ROOT
ATOM      1  C4  UNK     0       0.692  -0.927   0.121  0.00  0.00    +0.000 C 
ATOM      2  C5  UNK     0       1.304   0.479  -0.276  0.00  0.00    +0.000 C 
ATOM      3  C6  UNK     0       2.886   0.593  -0.498  0.00  0.00    +0.000 C 
ATOM      4  C7  UNK     0      -0.812  -0.706   0.679  0.00  0.00    +0.000 C 
ATOM      5  C8  UNK     0       3.593  -0.145   0.698  0.00  0.00    +0.000 C 
ATOM      6  C9  UNK     0       1.590  -1.606   1.202  0.00  0.00    +0.000 C 
ATOM      7  C10 UNK     0      -1.629   0.146  -0.318  0.00  0.00    +0.000 C 
ATOM      8  C11 UNK     0       3.081  -1.600   0.854  0.00  0.00    +0.000 C 
ATOM      9  C12 UNK     0       5.172   0.014   0.787  0.00  0.00    +0.000 C 
ATOM     10  C13 UNK     0      -3.162   0.071  -0.392  0.00  0.00    +0.000 C 
ATOM     11  C14 UNK     0       0.449   1.134  -1.383  0.00  0.00    +0.000 C 
ATOM     12  C15 UNK     0      -1.526  -2.082   0.910  0.00  0.00    +0.000 C 
ATOM     13  C16 UNK     0       3.286   2.123  -0.470  0.00  0.00    +0.000 C 
ATOM     14  C17 UNK     0      -3.776  -1.337  -0.052  0.00  0.00    +0.000 C 
ATOM     15  C18 UNK     0       0.641  -1.867  -1.131  0.00  0.00    +0.000 C 
ATOM     16  C19 UNK     0      -3.036  -1.967   1.154  0.00  0.00    +0.000 C 
ATOM     17  C20 UNK     0       5.638   1.435   0.284  0.00  0.00    +0.000 C 
ATOM     18  C21 UNK     0      -1.029   1.075  -1.104  0.00  0.00    +0.000 C 
ATOM     19  C22 UNK     0       3.350   0.016  -1.875  0.00  0.00    +0.000 C 
ATOM     20  C23 UNK     0       4.513   2.474   0.393  0.00  0.00    +0.000 C 
ATOM     21  C24 UNK     0      -0.839   0.047   2.053  0.00  0.00    +0.000 C 
ATOM     22  C25 UNK     0      -3.842   1.200   0.416  0.00  0.00    +0.000 C 
ATOM     23  C26 UNK     0      -5.294  -1.197   0.322  0.00  0.00    +0.000 C 
ATOM     24  C27 UNK     0      -5.351   1.352   0.034  0.00  0.00    +0.000 C 
ATOM     25  C28 UNK     0       5.595  -0.110   2.279  0.00  0.00    +0.000 C 
ATOM     26  C29 UNK     0       5.928  -1.106   0.023  0.00  0.00    +0.000 C 
ATOM     27  C30 UNK     0      -5.967  -0.018  -0.396  0.00  0.00    +0.000 C 
ATOM     28  C32 UNK     0      -6.124   1.910   1.250  0.00  0.00    +0.000 C 
ATOM     29  C33 UNK     0      -5.496   2.358  -1.129  0.00  0.00    +0.000 C 
ENDROOT
BRANCH  14  30
ATOM     30  C31 UNK     0      -3.654  -2.280  -1.249  0.00  0.00    +0.000 C 
ATOM     31  O3  UNK     0      -4.133  -3.446  -1.183  0.00  0.00    +0.000 OA
BRANCH  30  32
ATOM     32  O2  UNK     0      -2.987  -1.892  -2.411  0.00  0.00    +0.000 OA
ATOM     33  H81 UNK     0      -2.891  -2.527  -3.194  0.00  0.00    +0.000 HD
ENDBRANCH  30  32
ENDBRANCH  14  30
BRANCH  17  34
ATOM     34  O1  UNK     0       6.127   1.396  -1.034  0.00  0.00    +0.000 OA
ATOM     35  H80 UNK     0       6.628   2.240  -1.189  0.00  0.00    +0.000 HD
ENDBRANCH  17  34
TORSDOF 3
