REMARK  Name = C:\Users\Maximilian\Desktop\Conformers\converted_pdb\conformers_pdb\Oleanolic Acid_conf_5.pdb
REMARK  10 active torsions:
REMARK  status: ('A' for Active; 'I' for Inactive)
REMARK    1  A    between atoms: C4_1  and  C18_15
REMARK    2  A    between atoms: C6_3  and  C22_19
REMARK    3  A    between atoms: C7_4  and  C24_21
REMARK    4  A    between atoms: C12_9  and  C28_25
REMARK    5  A    between atoms: C12_9  and  C29_26
REMARK    6  A    between atoms: C17_14  and  C31_30
REMARK    7  A    between atoms: C20_17  and  O1_34
REMARK    8  A    between atoms: C27_24  and  C32_28
REMARK    9  A    between atoms: C27_24  and  C33_29
REMARK   10  A    between atoms: C31_30  and  O2_32
REMARK                            x       y       z     vdW  Elec       q    Type
REMARK                         _______ _______ _______ _____ _____    ______ ____
ROOT
ATOM      1  C4  UNK     0       0.551   0.368  -0.981  0.00  0.00    +0.000 C 
ATOM      2  C5  UNK     0       1.369   0.639   0.343  0.00  0.00    +0.000 C 
ATOM      3  C6  UNK     0       2.937   0.759   0.191  0.00  0.00    +0.000 C 
ATOM      4  C7  UNK     0      -0.839  -0.316  -0.538  0.00  0.00    +0.000 C 
ATOM      5  C8  UNK     0       3.426  -0.654  -0.286  0.00  0.00    +0.000 C 
ATOM      6  C9  UNK     0       1.384  -0.507  -2.001  0.00  0.00    +0.000 C 
ATOM      7  C10 UNK     0      -1.532   0.578   0.529  0.00  0.00    +0.000 C 
ATOM      8  C11 UNK     0       2.684  -1.210  -1.538  0.00  0.00    +0.000 C 
ATOM      9  C12 UNK     0       4.988  -0.895  -0.277  0.00  0.00    +0.000 C 
ATOM     10  C13 UNK     0      -3.055   0.520   0.725  0.00  0.00    +0.000 C 
ATOM     11  C14 UNK     0       0.661   1.698   1.207  0.00  0.00    +0.000 C 
ATOM     12  C15 UNK     0      -1.821  -0.524  -1.757  0.00  0.00    +0.000 C 
ATOM     13  C16 UNK     0       3.578   1.045   1.588  0.00  0.00    +0.000 C 
ATOM     14  C17 UNK     0      -3.874   0.597  -0.633  0.00  0.00    +0.000 C 
ATOM     15  C18 UNK     0       0.216   1.710  -1.728  0.00  0.00    +0.000 C 
ATOM     16  C19 UNK     0      -2.929   0.534  -1.868  0.00  0.00    +0.000 C 
ATOM     17  C20 UNK     0       5.528  -0.543   1.149  0.00  0.00    +0.000 C 
ATOM     18  C21 UNK     0      -0.818   1.406   1.345  0.00  0.00    +0.000 C 
ATOM     19  C22 UNK     0       3.327   1.905  -0.776  0.00  0.00    +0.000 C 
ATOM     20  C23 UNK     0       5.103   0.856   1.637  0.00  0.00    +0.000 C 
ATOM     21  C24 UNK     0      -0.573  -1.720   0.108  0.00  0.00    +0.000 C 
ATOM     22  C25 UNK     0      -3.432  -0.695   1.606  0.00  0.00    +0.000 C 
ATOM     23  C26 UNK     0      -4.912  -0.560  -0.720  0.00  0.00    +0.000 C 
ATOM     24  C27 UNK     0      -4.962  -0.836   1.857  0.00  0.00    +0.000 C 
ATOM     25  C28 UNK     0       5.268  -2.405  -0.518  0.00  0.00    +0.000 C 
ATOM     26  C29 UNK     0       5.747  -0.098  -1.378  0.00  0.00    +0.000 C 
ATOM     27  C30 UNK     0      -5.787  -0.637   0.541  0.00  0.00    +0.000 C 
ATOM     28  C32 UNK     0      -5.228  -2.251   2.418  0.00  0.00    +0.000 C 
ATOM     29  C33 UNK     0      -5.418   0.187   2.921  0.00  0.00    +0.000 C 
ENDROOT
BRANCH  14  30
ATOM     30  C31 UNK     0      -4.659   1.909  -0.758  0.00  0.00    +0.000 C 
ATOM     31  O3  UNK     0      -4.971   2.594   0.254  0.00  0.00    +0.000 OA
BRANCH  30  32
ATOM     32  O2  UNK     0      -5.128   2.313  -2.008  0.00  0.00    +0.000 OA
ATOM     33  H81 UNK     0      -5.675   3.159  -2.110  0.00  0.00    +0.000 HD
ENDBRANCH  30  32
ENDBRANCH  14  30
BRANCH  17  34
ATOM     34  O1  UNK     0       6.925  -0.704   1.239  0.00  0.00    +0.000 OA
ATOM     35  H80 UNK     0       7.356   0.054   0.765  0.00  0.00    +0.000 HD
ENDBRANCH  17  34
TORSDOF 3
