REMARK  Name = C:\Users\Maximilian\Desktop\Conformers\converted_pdb\conformers_pdb\Oleanolic Acid_conf_13.pdb
REMARK  10 active torsions:
REMARK  status: ('A' for Active; 'I' for Inactive)
REMARK    1  A    between atoms: C4_1  and  C18_15
REMARK    2  A    between atoms: C6_3  and  C22_19
REMARK    3  A    between atoms: C7_4  and  C24_21
REMARK    4  A    between atoms: C12_9  and  C28_25
REMARK    5  A    between atoms: C12_9  and  C29_26
REMARK    6  A    between atoms: C17_14  and  C31_30
REMARK    7  A    between atoms: C20_17  and  O1_34
REMARK    8  A    between atoms: C27_24  and  C32_28
REMARK    9  A    between atoms: C27_24  and  C33_29
REMARK   10  A    between atoms: C31_30  and  O2_32
REMARK                            x       y       z     vdW  Elec       q    Type
REMARK                         _______ _______ _______ _____ _____    ______ ____
ROOT
ATOM      1  C4  UNK     0      -0.609  -0.759  -0.272  0.00  0.00    +0.000 C 
ATOM      2  C5  UNK     0      -1.316   0.481   0.418  0.00  0.00    +0.000 C 
ATOM      3  C6  UNK     0      -2.882   0.388   0.741  0.00  0.00    +0.000 C 
ATOM      4  C7  UNK     0       0.849  -0.299  -0.815  0.00  0.00    +0.000 C 
ATOM      5  C8  UNK     0      -3.608  -0.154  -0.544  0.00  0.00    +0.000 C 
ATOM      6  C9  UNK     0      -1.519  -1.278  -1.436  0.00  0.00    +0.000 C 
ATOM      7  C10 UNK     0       1.636   0.422   0.297  0.00  0.00    +0.000 C 
ATOM      8  C11 UNK     0      -2.984  -1.483  -1.037  0.00  0.00    +0.000 C 
ATOM      9  C12 UNK     0      -5.198  -0.145  -0.508  0.00  0.00    +0.000 C 
ATOM     10  C13 UNK     0       3.165   0.312   0.371  0.00  0.00    +0.000 C 
ATOM     11  C14 UNK     0      -0.454   1.029   1.580  0.00  0.00    +0.000 C 
ATOM     12  C15 UNK     0       1.722  -1.496  -1.353  0.00  0.00    +0.000 C 
ATOM     13  C16 UNK     0      -3.415   1.845   1.052  0.00  0.00    +0.000 C 
ATOM     14  C17 UNK     0       3.662  -1.187   0.373  0.00  0.00    +0.000 C 
ATOM     15  C18 UNK     0      -0.431  -1.923   0.745  0.00  0.00    +0.000 C 
ATOM     16  C19 UNK     0       2.654  -2.160  -0.319  0.00  0.00    +0.000 C 
ATOM     17  C20 UNK     0      -5.750   1.080   0.317  0.00  0.00    +0.000 C 
ATOM     18  C21 UNK     0       1.006   1.158   1.243  0.00  0.00    +0.000 C 
ATOM     19  C22 UNK     0      -3.191  -0.504   1.988  0.00  0.00    +0.000 C 
ATOM     20  C23 UNK     0      -4.739   2.233   0.365  0.00  0.00    +0.000 C 
ATOM     21  C24 UNK     0       0.722   0.708  -2.010  0.00  0.00    +0.000 C 
ATOM     22  C25 UNK     0       3.868   1.175  -0.703  0.00  0.00    +0.000 C 
ATOM     23  C26 UNK     0       5.048  -1.296  -0.351  0.00  0.00    +0.000 C 
ATOM     24  C27 UNK     0       5.414   1.241  -0.497  0.00  0.00    +0.000 C 
ATOM     25  C28 UNK     0      -5.722   0.005  -1.965  0.00  0.00    +0.000 C 
ATOM     26  C29 UNK     0      -5.794  -1.472   0.036  0.00  0.00    +0.000 C 
ATOM     27  C30 UNK     0       5.970  -0.124   0.019  0.00  0.00    +0.000 C 
ATOM     28  C32 UNK     0       6.079   1.591  -1.847  0.00  0.00    +0.000 C 
ATOM     29  C33 UNK     0       5.767   2.357   0.511  0.00  0.00    +0.000 C 
ENDROOT
BRANCH  14  30
ATOM     30  C31 UNK     0       3.799  -1.647   1.826  0.00  0.00    +0.000 C 
ATOM     31  O3  UNK     0       4.741  -2.407   2.185  0.00  0.00    +0.000 OA
BRANCH  30  32
ATOM     32  O2  UNK     0       2.825  -1.293   2.756  0.00  0.00    +0.000 OA
ATOM     33  H81 UNK     0       2.882  -1.611   3.717  0.00  0.00    +0.000 HD
ENDBRANCH  30  32
ENDBRANCH  14  30
BRANCH  17  34
ATOM     34  O1  UNK     0      -6.121   0.715   1.624  0.00  0.00    +0.000 OA
ATOM     35  H80 UNK     0      -6.679   1.450   1.990  0.00  0.00    +0.000 HD
ENDBRANCH  17  34
TORSDOF 3
