REMARK  Name = C:\Users\Maximilian\Desktop\Conformers\converted_pdb\conformers_pdb\Oleanolic Acid_conf_25.pdb
REMARK  10 active torsions:
REMARK  status: ('A' for Active; 'I' for Inactive)
REMARK    1  A    between atoms: C4_1  and  C18_15
REMARK    2  A    between atoms: C6_3  and  C22_19
REMARK    3  A    between atoms: C7_4  and  C24_21
REMARK    4  A    between atoms: C12_9  and  C28_25
REMARK    5  A    between atoms: C12_9  and  C29_26
REMARK    6  A    between atoms: C17_14  and  C31_30
REMARK    7  A    between atoms: C20_17  and  O1_34
REMARK    8  A    between atoms: C27_24  and  C32_28
REMARK    9  A    between atoms: C27_24  and  C33_29
REMARK   10  A    between atoms: C31_30  and  O2_32
REMARK                            x       y       z     vdW  Elec       q    Type
REMARK                         _______ _______ _______ _____ _____    ______ ____
ROOT
ATOM      1  C4  UNK     0      -0.657   0.800  -0.414  0.00  0.00    +0.000 C 
ATOM      2  C5  UNK     0      -1.304  -0.621  -0.150  0.00  0.00    +0.000 C 
ATOM      3  C6  UNK     0      -2.858  -0.805  -0.486  0.00  0.00    +0.000 C 
ATOM      4  C7  UNK     0       0.792   0.860   0.307  0.00  0.00    +0.000 C 
ATOM      5  C8  UNK     0      -3.624   0.388   0.204  0.00  0.00    +0.000 C 
ATOM      6  C9  UNK     0      -1.602   1.915   0.142  0.00  0.00    +0.000 C 
ATOM      7  C10 UNK     0       1.651  -0.337  -0.143  0.00  0.00    +0.000 C 
ATOM      8  C11 UNK     0      -3.071   1.756  -0.274  0.00  0.00    +0.000 C 
ATOM      9  C12 UNK     0      -5.202   0.272   0.256  0.00  0.00    +0.000 C 
ATOM     10  C13 UNK     0       3.186  -0.295  -0.138  0.00  0.00    +0.000 C 
ATOM     11  C14 UNK     0      -0.389  -1.762  -0.660  0.00  0.00    +0.000 C 
ATOM     12  C15 UNK     0       1.528   2.204  -0.022  0.00  0.00    +0.000 C 
ATOM     13  C16 UNK     0      -3.348  -2.136   0.178  0.00  0.00    +0.000 C 
ATOM     14  C17 UNK     0       3.817   1.122  -0.398  0.00  0.00    +0.000 C 
ATOM     15  C18 UNK     0      -0.491   1.041  -1.951  0.00  0.00    +0.000 C 
ATOM     16  C19 UNK     0       3.016   2.213   0.353  0.00  0.00    +0.000 C 
ATOM     17  C20 UNK     0      -5.571  -1.111   0.889  0.00  0.00    +0.000 C 
ATOM     18  C21 UNK     0       1.080  -1.531  -0.432  0.00  0.00    +0.000 C 
ATOM     19  C22 UNK     0      -3.141  -0.898  -2.025  0.00  0.00    +0.000 C 
ATOM     20  C23 UNK     0      -4.875  -2.303   0.211  0.00  0.00    +0.000 C 
ATOM     21  C24 UNK     0       0.697   0.772   1.869  0.00  0.00    +0.000 C 
ATOM     22  C25 UNK     0       3.774  -0.953   1.134  0.00  0.00    +0.000 C 
ATOM     23  C26 UNK     0       5.301   1.164   0.114  0.00  0.00    +0.000 C 
ATOM     24  C27 UNK     0       5.299  -1.253   0.978  0.00  0.00    +0.000 C 
ATOM     25  C28 UNK     0      -5.777   1.370   1.194  0.00  0.00    +0.000 C 
ATOM     26  C29 UNK     0      -5.874   0.461  -1.129  0.00  0.00    +0.000 C 
ATOM     27  C30 UNK     0       5.986  -0.208   0.042  0.00  0.00    +0.000 C 
ATOM     28  C32 UNK     0       5.964  -1.223   2.372  0.00  0.00    +0.000 C 
ATOM     29  C33 UNK     0       5.495  -2.665   0.384  0.00  0.00    +0.000 C 
ENDROOT
BRANCH  14  30
ATOM     30  C31 UNK     0       3.806   1.455  -1.891  0.00  0.00    +0.000 C 
ATOM     31  O3  UNK     0       3.136   0.764  -2.707  0.00  0.00    +0.000 OA
BRANCH  30  32
ATOM     32  O2  UNK     0       4.473   2.586  -2.354  0.00  0.00    +0.000 OA
ATOM     33  H81 UNK     0       4.444   2.841  -3.335  0.00  0.00    +0.000 HD
ENDBRANCH  30  32
ENDBRANCH  14  30
BRANCH  17  34
ATOM     34  O1  UNK     0      -6.964  -1.315   0.942  0.00  0.00    +0.000 OA
ATOM     35  H80 UNK     0      -7.283  -1.531   0.029  0.00  0.00    +0.000 HD
ENDBRANCH  17  34
TORSDOF 3
