REMARK  Name = C:\Users\Maximilian\Desktop\Conformers\converted_pdb\conformers_pdb\Oleanolic Acid_conf_20.pdb
REMARK  10 active torsions:
REMARK  status: ('A' for Active; 'I' for Inactive)
REMARK    1  A    between atoms: C4_1  and  C18_15
REMARK    2  A    between atoms: C6_3  and  C22_19
REMARK    3  A    between atoms: C7_4  and  C24_21
REMARK    4  A    between atoms: C12_9  and  C28_25
REMARK    5  A    between atoms: C12_9  and  C29_26
REMARK    6  A    between atoms: C17_14  and  C31_30
REMARK    7  A    between atoms: C20_17  and  O1_34
REMARK    8  A    between atoms: C27_24  and  C32_28
REMARK    9  A    between atoms: C27_24  and  C33_29
REMARK   10  A    between atoms: C31_30  and  O2_32
REMARK                            x       y       z     vdW  Elec       q    Type
REMARK                         _______ _______ _______ _____ _____    ______ ____
ROOT
ATOM      1  C4  UNK     0      -0.585   0.827  -0.013  0.00  0.00    +0.000 C 
ATOM      2  C5  UNK     0      -1.323  -0.544   0.242  0.00  0.00    +0.000 C 
ATOM      3  C6  UNK     0      -2.909  -0.536   0.136  0.00  0.00    +0.000 C 
ATOM      4  C7  UNK     0       0.958   0.642   0.420  0.00  0.00    +0.000 C 
ATOM      5  C8  UNK     0      -3.427   0.619   1.081  0.00  0.00    +0.000 C 
ATOM      6  C9  UNK     0      -1.274   1.959   0.815  0.00  0.00    +0.000 C 
ATOM      7  C10 UNK     0       1.576  -0.437  -0.479  0.00  0.00    +0.000 C 
ATOM      8  C11 UNK     0      -2.807   1.988   0.696  0.00  0.00    +0.000 C 
ATOM      9  C12 UNK     0      -4.984   0.637   1.368  0.00  0.00    +0.000 C 
ATOM     10  C13 UNK     0       3.042  -0.412  -0.915  0.00  0.00    +0.000 C 
ATOM     11  C14 UNK     0      -0.619  -1.738  -0.473  0.00  0.00    +0.000 C 
ATOM     12  C15 UNK     0       1.733   2.002   0.342  0.00  0.00    +0.000 C 
ATOM     13  C16 UNK     0      -3.441  -1.895   0.697  0.00  0.00    +0.000 C 
ATOM     14  C17 UNK     0       3.681   1.020  -0.997  0.00  0.00    +0.000 C 
ATOM     15  C18 UNK     0      -0.678   1.220  -1.530  0.00  0.00    +0.000 C 
ATOM     16  C19 UNK     0       3.253   1.860   0.230  0.00  0.00    +0.000 C 
ATOM     17  C20 UNK     0      -5.407  -0.785   1.870  0.00  0.00    +0.000 C 
ATOM     18  C21 UNK     0       0.845  -1.534  -0.807  0.00  0.00    +0.000 C 
ATOM     19  C22 UNK     0      -3.400  -0.384  -1.344  0.00  0.00    +0.000 C 
ATOM     20  C23 UNK     0      -4.957  -1.923   0.939  0.00  0.00    +0.000 C 
ATOM     21  C24 UNK     0       1.140   0.113   1.883  0.00  0.00    +0.000 C 
ATOM     22  C25 UNK     0       3.896  -1.354  -0.037  0.00  0.00    +0.000 C 
ATOM     23  C26 UNK     0       5.250   0.928  -0.997  0.00  0.00    +0.000 C 
ATOM     24  C27 UNK     0       5.303  -1.615  -0.666  0.00  0.00    +0.000 C 
ATOM     25  C28 UNK     0      -5.294   1.639   2.515  0.00  0.00    +0.000 C 
ATOM     26  C29 UNK     0      -5.824   1.077   0.141  0.00  0.00    +0.000 C 
ATOM     27  C30 UNK     0       5.767  -0.409  -1.543  0.00  0.00    +0.000 C 
ATOM     28  C32 UNK     0       6.324  -1.862   0.467  0.00  0.00    +0.000 C 
ATOM     29  C33 UNK     0       5.249  -2.881  -1.550  0.00  0.00    +0.000 C 
ENDROOT
BRANCH  14  30
ATOM     30  C31 UNK     0       3.230   1.735  -2.270  0.00  0.00    +0.000 C 
ATOM     31  O3  UNK     0       3.663   2.892  -2.529  0.00  0.00    +0.000 OA
BRANCH  30  32
ATOM     32  O2  UNK     0       2.305   1.153  -3.134  0.00  0.00    +0.000 OA
ATOM     33  H81 UNK     0       1.982   1.643  -3.959  0.00  0.00    +0.000 HD
ENDBRANCH  30  32
ENDBRANCH  14  30
BRANCH  17  34
ATOM     34  O1  UNK     0      -6.790  -0.866   2.123  0.00  0.00    +0.000 OA
ATOM     35  H80 UNK     0      -7.263  -0.925   1.252  0.00  0.00    +0.000 HD
ENDBRANCH  17  34
TORSDOF 3
