REMARK  3 active torsions:
REMARK  status: ('A' for Active; 'I' for Inactive)
REMARK    1  A    between atoms: O1_1  and  C20_20 
REMARK    2  A    between atoms: O2_2  and  C31_31 
REMARK    3  A    between atoms: C17_17  and  C31_31 
ROOT
HETATM    1  C4          0       7.241  -1.571   0.152  1.00  0.00    -0.028 C 
HETATM    2  C5          0       5.852  -0.759   0.173  1.00  0.00     0.007 C 
HETATM    3  C6          0       4.581  -1.576   0.702  1.00  0.00    -0.035 C 
HETATM    4  C7          0       8.332  -0.614  -0.558  1.00  0.00    -0.013 C 
HETATM    5  C8          0       4.472  -2.888  -0.230  1.00  0.00     0.004 C 
HETATM    6  C9          0       7.005  -2.849  -0.694  1.00  0.00     0.011 C 
HETATM    7  C10         0       8.432   0.739   0.208  1.00  0.00    -0.069 C 
HETATM    8  C11         0       5.807  -3.720  -0.124  1.00  0.00     0.007 C 
HETATM    9  C12         0       3.181  -3.802   0.084  1.00  0.00    -0.017 C 
HETATM   10  C13         0       9.686   1.628   0.100  1.00  0.00     0.034 C 
HETATM   11  C14         0       6.048   0.502   1.074  1.00  0.00     0.033 C 
HETATM   12  C15         0       9.729  -1.265  -0.733  1.00  0.00     0.016 C 
HETATM   13  C16         0       3.275  -0.765   0.496  1.00  0.00     0.012 C 
HETATM   14  C17         0      11.046   0.846  -0.293  1.00  0.00     0.053 C 
HETATM   15  C18         0       7.809  -1.999   1.551  1.00  0.00     0.016 C 
HETATM   16  C19         0      10.742  -0.233  -1.369  1.00  0.00     0.022 C 
HETATM   17  C20         0       1.943  -2.885  -0.108  1.00  0.00     0.126 C 
HETATM   18  C21         0       7.386   1.236   0.878  1.00  0.00    -0.022 C 
HETATM   19  C22         0       4.707  -1.835   2.243  1.00  0.00     0.016 C 
HETATM   20  C23         0       2.017  -1.648   0.861  1.00  0.00     0.033 C 
HETATM   21  C24         0       7.884  -0.289  -2.022  1.00  0.00     0.021 C 
HETATM   22  C25         0       9.531   2.659  -0.984  1.00  0.00     0.019 C 
HETATM   23  C26         0      12.123   1.825  -0.923  1.00  0.00     0.022 C 
HETATM   24  C27         0      10.696   3.758  -0.700  1.00  0.00    -0.047 C 
HETATM   25  C28         0       3.114  -4.959  -0.927  1.00  0.00     0.018 C 
HETATM   26  C29         0       3.126  -4.463   1.495  1.00  0.00     0.018 C 
HETATM   27  C30         0      12.018   3.070  -0.149  1.00  0.00     0.010 C 
HETATM   28  C32         0      10.946   4.500  -2.022  1.00  0.00     0.015 C 
HETATM   29  C33         0      10.277   4.802   0.371  1.00  0.00     0.015 C 
ENDROOT
BRANCH  14  30
HETATM   30  C31         0      11.654   0.141   0.901  1.00  0.00     0.149 C 
HETATM   31  O3          0      10.959  -0.369   1.788  1.00  0.00    -0.649 OA
BRANCH  30  32
HETATM   32  O2          0      13.053   0.142   1.017  1.00  0.00    -0.776 OA
HETATM   33  H81         0      13.330  -0.311   1.846  1.00  0.00     0.167 HD
ENDBRANCH  30  32
ENDBRANCH  14  30
BRANCH  17  34
HETATM   34  O1          0       0.760  -3.655   0.146  1.00  0.00    -0.395 OA
HETATM   35  H80         0      -0.041  -3.089   0.014  1.00  0.00     0.210 HD
ENDBRANCH  17  34
TORSDOF 3
