REMARK  Name = C:\Users\Maximilian\Desktop\Conformers\converted_pdb\conformers_pdb\Oleanolic Acid_conf_12.pdb
REMARK  10 active torsions:
REMARK  status: ('A' for Active; 'I' for Inactive)
REMARK    1  A    between atoms: C4_1  and  C18_15
REMARK    2  A    between atoms: C6_3  and  C22_19
REMARK    3  A    between atoms: C7_4  and  C24_21
REMARK    4  A    between atoms: C12_9  and  C28_25
REMARK    5  A    between atoms: C12_9  and  C29_26
REMARK    6  A    between atoms: C17_14  and  C31_30
REMARK    7  A    between atoms: C20_17  and  O1_34
REMARK    8  A    between atoms: C27_24  and  C32_28
REMARK    9  A    between atoms: C27_24  and  C33_29
REMARK   10  A    between atoms: C31_30  and  O2_32
REMARK                            x       y       z     vdW  Elec       q    Type
REMARK                         _______ _______ _______ _____ _____    ______ ____
ROOT
ATOM      1  C4  UNK     0       0.610   0.013   0.930  0.00  0.00    +0.000 C 
ATOM      2  C5  UNK     0       1.307  -0.123  -0.478  0.00  0.00    +0.000 C 
ATOM      3  C6  UNK     0       2.882  -0.318  -0.478  0.00  0.00    +0.000 C 
ATOM      4  C7  UNK     0      -0.907   0.491   0.672  0.00  0.00    +0.000 C 
ATOM      5  C8  UNK     0       3.491   0.851   0.387  0.00  0.00    +0.000 C 
ATOM      6  C9  UNK     0       1.386   1.039   1.822  0.00  0.00    +0.000 C 
ATOM      7  C10 UNK     0      -1.616  -0.613  -0.135  0.00  0.00    +0.000 C 
ATOM      8  C11 UNK     0       2.914   0.854   1.827  0.00  0.00    +0.000 C 
ATOM      9  C12 UNK     0       5.060   1.042   0.287  0.00  0.00    +0.000 C 
ATOM     10  C13 UNK     0      -3.121  -0.873  -0.020  0.00  0.00    +0.000 C 
ATOM     11  C14 UNK     0       0.525  -1.073  -1.438  0.00  0.00    +0.000 C 
ATOM     12  C15 UNK     0      -1.644   0.816   2.021  0.00  0.00    +0.000 C 
ATOM     13  C16 UNK     0       3.389  -0.148  -1.946  0.00  0.00    +0.000 C 
ATOM     14  C17 UNK     0      -3.664  -0.637   1.425  0.00  0.00    +0.000 C 
ATOM     15  C18 UNK     0       0.633  -1.366   1.677  0.00  0.00    +0.000 C 
ATOM     16  C19 UNK     0      -3.176   0.736   1.949  0.00  0.00    +0.000 C 
ATOM     17  C20 UNK     0       5.452   1.156  -1.221  0.00  0.00    +0.000 C 
ATOM     18  C21 UNK     0      -0.943  -1.257  -1.123  0.00  0.00    +0.000 C 
ATOM     19  C22 UNK     0       3.297  -1.742   0.031  0.00  0.00    +0.000 C 
ATOM     20  C23 UNK     0       4.912  -0.006  -2.071  0.00  0.00    +0.000 C 
ATOM     21  C24 UNK     0      -1.000   1.789  -0.207  0.00  0.00    +0.000 C 
ATOM     22  C25 UNK     0      -3.859  -0.040  -1.101  0.00  0.00    +0.000 C 
ATOM     23  C26 UNK     0      -5.220  -0.702   1.442  0.00  0.00    +0.000 C 
ATOM     24  C27 UNK     0      -5.400  -0.171  -1.061  0.00  0.00    +0.000 C 
ATOM     25  C28 UNK     0       5.468   2.378   0.968  0.00  0.00    +0.000 C 
ATOM     26  C29 UNK     0       5.863  -0.086   0.982  0.00  0.00    +0.000 C 
ATOM     27  C30 UNK     0      -5.903   0.150   0.363  0.00  0.00    +0.000 C 
ATOM     28  C32 UNK     0      -6.010   0.857  -2.040  0.00  0.00    +0.000 C 
ATOM     29  C33 UNK     0      -5.850  -1.581  -1.512  0.00  0.00    +0.000 C 
ENDROOT
BRANCH  14  30
ATOM     30  C31 UNK     0      -3.179  -1.732   2.373  0.00  0.00    +0.000 C 
ATOM     31  O3  UNK     0      -3.635  -1.792   3.549  0.00  0.00    +0.000 OA
BRANCH  30  32
ATOM     32  O2  UNK     0      -2.260  -2.693   1.954  0.00  0.00    +0.000 OA
ATOM     33  H81 UNK     0      -1.953  -3.427   2.582  0.00  0.00    +0.000 HD
ENDBRANCH  30  32
ENDBRANCH  14  30
BRANCH  17  34
ATOM     34  O1  UNK     0       6.851   1.226  -1.360  0.00  0.00    +0.000 OA
ATOM     35  H80 UNK     0       7.036   1.559  -2.277  0.00  0.00    +0.000 HD
ENDBRANCH  17  34
TORSDOF 3
