REMARK  Name = C:\Users\Maximilian\Desktop\Conformers\converted_pdb\conformers_pdb\Oleanolic Acid_conf_3.pdb
REMARK  10 active torsions:
REMARK  status: ('A' for Active; 'I' for Inactive)
REMARK    1  A    between atoms: C4_1  and  C18_15
REMARK    2  A    between atoms: C6_3  and  C22_19
REMARK    3  A    between atoms: C7_4  and  C24_21
REMARK    4  A    between atoms: C12_9  and  C28_25
REMARK    5  A    between atoms: C12_9  and  C29_26
REMARK    6  A    between atoms: C17_14  and  C31_30
REMARK    7  A    between atoms: C20_17  and  O1_34
REMARK    8  A    between atoms: C27_24  and  C32_28
REMARK    9  A    between atoms: C27_24  and  C33_29
REMARK   10  A    between atoms: C31_30  and  O2_32
REMARK                            x       y       z     vdW  Elec       q    Type
REMARK                         _______ _______ _______ _____ _____    ______ ____
ROOT
ATOM      1  C4  UNK     0      -0.491  -0.815   0.076  0.00  0.00    +0.000 C 
ATOM      2  C5  UNK     0      -1.388   0.457  -0.184  0.00  0.00    +0.000 C 
ATOM      3  C6  UNK     0      -2.953   0.272   0.016  0.00  0.00    +0.000 C 
ATOM      4  C7  UNK     0       0.995  -0.475  -0.440  0.00  0.00    +0.000 C 
ATOM      5  C8  UNK     0      -3.387  -0.955  -0.876  0.00  0.00    +0.000 C 
ATOM      6  C9  UNK     0      -1.088  -2.049  -0.677  0.00  0.00    +0.000 C 
ATOM      7  C10 UNK     0       1.527   0.687   0.420  0.00  0.00    +0.000 C 
ATOM      8  C11 UNK     0      -2.604  -2.238  -0.495  0.00  0.00    +0.000 C 
ATOM      9  C12 UNK     0      -4.946  -1.149  -1.074  0.00  0.00    +0.000 C 
ATOM     10  C13 UNK     0       3.002   0.823   0.797  0.00  0.00    +0.000 C 
ATOM     11  C14 UNK     0      -0.790   1.749   0.457  0.00  0.00    +0.000 C 
ATOM     12  C15 UNK     0       1.916  -1.750  -0.398  0.00  0.00    +0.000 C 
ATOM     13  C16 UNK     0      -3.667   1.547  -0.539  0.00  0.00    +0.000 C 
ATOM     14  C17 UNK     0       3.690  -0.561   1.006  0.00  0.00    +0.000 C 
ATOM     15  C18 UNK     0      -0.463  -1.155   1.609  0.00  0.00    +0.000 C 
ATOM     16  C19 UNK     0       3.414  -1.456  -0.229  0.00  0.00    +0.000 C 
ATOM     17  C20 UNK     0      -5.560   0.197  -1.575  0.00  0.00    +0.000 C 
ATOM     18  C21 UNK     0       0.699   1.714   0.740  0.00  0.00    +0.000 C 
ATOM     19  C22 UNK     0      -3.333   0.102   1.526  0.00  0.00    +0.000 C 
ATOM     20  C23 UNK     0      -5.187   1.395  -0.690  0.00  0.00    +0.000 C 
ATOM     21  C24 UNK     0       1.039   0.039  -1.920  0.00  0.00    +0.000 C 
ATOM     22  C25 UNK     0       3.723   1.718  -0.244  0.00  0.00    +0.000 C 
ATOM     23  C26 UNK     0       5.218  -0.385   1.221  0.00  0.00    +0.000 C 
ATOM     24  C27 UNK     0       5.241   1.886   0.016  0.00  0.00    +0.000 C 
ATOM     25  C28 UNK     0      -5.204  -2.207  -2.184  0.00  0.00    +0.000 C 
ATOM     26  C29 UNK     0      -5.670  -1.647   0.204  0.00  0.00    +0.000 C 
ATOM     27  C30 UNK     0       5.900   0.494   0.162  0.00  0.00    +0.000 C 
ATOM     28  C32 UNK     0       5.873   2.604  -1.195  0.00  0.00    +0.000 C 
ATOM     29  C33 UNK     0       5.496   2.757   1.269  0.00  0.00    +0.000 C 
ENDROOT
BRANCH  14  30
ATOM     30  C31 UNK     0       3.159  -1.242   2.265  0.00  0.00    +0.000 C 
ATOM     31  O3  UNK     0       3.363  -2.474   2.451  0.00  0.00    +0.000 OA
BRANCH  30  32
ATOM     32  O2  UNK     0       2.512  -0.507   3.256  0.00  0.00    +0.000 OA
ATOM     33  H81 UNK     0       2.175  -0.955   4.100  0.00  0.00    +0.000 HD
ENDBRANCH  30  32
ENDBRANCH  14  30
BRANCH  17  34
ATOM     34  O1  UNK     0      -6.962   0.098  -1.652  0.00  0.00    +0.000 OA
ATOM     35  H80 UNK     0      -7.270   0.807  -2.275  0.00  0.00    +0.000 HD
ENDBRANCH  17  34
TORSDOF 3
