REMARK  Name = C:\Users\Maximilian\Desktop\Conformers\converted_pdb\conformers_pdb\Oleanolic Acid_conf_24.pdb
REMARK  10 active torsions:
REMARK  status: ('A' for Active; 'I' for Inactive)
REMARK    1  A    between atoms: C4_1  and  C18_15
REMARK    2  A    between atoms: C6_3  and  C22_19
REMARK    3  A    between atoms: C7_4  and  C24_21
REMARK    4  A    between atoms: C12_9  and  C28_25
REMARK    5  A    between atoms: C12_9  and  C29_26
REMARK    6  A    between atoms: C17_14  and  C31_30
REMARK    7  A    between atoms: C20_17  and  O1_34
REMARK    8  A    between atoms: C27_24  and  C32_28
REMARK    9  A    between atoms: C27_24  and  C33_29
REMARK   10  A    between atoms: C31_30  and  O2_32
REMARK                            x       y       z     vdW  Elec       q    Type
REMARK                         _______ _______ _______ _____ _____    ______ ____
ROOT
ATOM      1  C4  UNK     0       0.688   0.783   0.334  0.00  0.00    +0.000 C 
ATOM      2  C5  UNK     0       1.196  -0.549  -0.339  0.00  0.00    +0.000 C 
ATOM      3  C6  UNK     0       2.707  -0.964  -0.072  0.00  0.00    +0.000 C 
ATOM      4  C7  UNK     0      -0.790   1.085  -0.237  0.00  0.00    +0.000 C 
ATOM      5  C8  UNK     0       3.615   0.267  -0.422  0.00  0.00    +0.000 C 
ATOM      6  C9  UNK     0       1.695   1.922  -0.011  0.00  0.00    +0.000 C 
ATOM      7  C10 UNK     0      -1.721  -0.046   0.218  0.00  0.00    +0.000 C 
ATOM      8  C11 UNK     0       3.160   1.563   0.299  0.00  0.00    +0.000 C 
ATOM      9  C12 UNK     0       5.190   0.024  -0.412  0.00  0.00    +0.000 C 
ATOM     10  C13 UNK     0      -3.024   0.312   0.969  0.00  0.00    +0.000 C 
ATOM     11  C14 UNK     0       0.161  -1.711  -0.234  0.00  0.00    +0.000 C 
ATOM     12  C15 UNK     0      -1.326   2.461   0.278  0.00  0.00    +0.000 C 
ATOM     13  C16 UNK     0       3.089  -2.071  -1.095  0.00  0.00    +0.000 C 
ATOM     14  C17 UNK     0      -3.775   1.568   0.378  0.00  0.00    +0.000 C 
ATOM     15  C18 UNK     0       0.643   0.656   1.898  0.00  0.00    +0.000 C 
ATOM     16  C19 UNK     0      -2.802   2.721  -0.047  0.00  0.00    +0.000 C 
ATOM     17  C20 UNK     0       5.614  -1.503  -0.538  0.00  0.00    +0.000 C 
ATOM     18  C21 UNK     0      -1.230  -1.317   0.219  0.00  0.00    +0.000 C 
ATOM     19  C22 UNK     0       2.908  -1.508   1.377  0.00  0.00    +0.000 C 
ATOM     20  C23 UNK     0       4.561  -2.516  -1.065  0.00  0.00    +0.000 C 
ATOM     21  C24 UNK     0      -0.846   1.113  -1.802  0.00  0.00    +0.000 C 
ATOM     22  C25 UNK     0      -4.035  -0.851   1.235  0.00  0.00    +0.000 C 
ATOM     23  C26 UNK     0      -4.599   1.128  -0.870  0.00  0.00    +0.000 C 
ATOM     24  C27 UNK     0      -4.928  -1.255   0.026  0.00  0.00    +0.000 C 
ATOM     25  C28 UNK     0       5.787   0.776  -1.638  0.00  0.00    +0.000 C 
ATOM     26  C29 UNK     0       5.875   0.658   0.837  0.00  0.00    +0.000 C 
ATOM     27  C30 UNK     0      -5.601   0.003  -0.572  0.00  0.00    +0.000 C 
ATOM     28  C32 UNK     0      -4.131  -2.011  -1.061  0.00  0.00    +0.000 C 
ATOM     29  C33 UNK     0      -6.036  -2.206   0.533  0.00  0.00    +0.000 C 
ENDROOT
BRANCH  14  30
ATOM     30  C31 UNK     0      -4.723   2.156   1.425  0.00  0.00    +0.000 C 
ATOM     31  O3  UNK     0      -4.421   2.135   2.650  0.00  0.00    +0.000 OA
BRANCH  30  32
ATOM     32  O2  UNK     0      -5.879   2.826   1.029  0.00  0.00    +0.000 OA
ATOM     33  H81 UNK     0      -6.495   3.251   1.712  0.00  0.00    +0.000 HD
ENDBRANCH  30  32
ENDBRANCH  14  30
BRANCH  17  34
ATOM     34  O1  UNK     0       6.219  -2.003   0.633  0.00  0.00    +0.000 OA
ATOM     35  H80 UNK     0       5.538  -2.032   1.347  0.00  0.00    +0.000 HD
ENDBRANCH  17  34
TORSDOF 3
