REMARK  Name = C:\Users\Maximilian\Desktop\Conformers\converted_pdb\conformers_pdb\Oleanolic Acid_conf_14.pdb
REMARK  10 active torsions:
REMARK  status: ('A' for Active; 'I' for Inactive)
REMARK    1  A    between atoms: C4_1  and  C18_15
REMARK    2  A    between atoms: C6_3  and  C22_19
REMARK    3  A    between atoms: C7_4  and  C24_21
REMARK    4  A    between atoms: C12_9  and  C28_25
REMARK    5  A    between atoms: C12_9  and  C29_26
REMARK    6  A    between atoms: C17_14  and  C31_30
REMARK    7  A    between atoms: C20_17  and  O1_34
REMARK    8  A    between atoms: C27_24  and  C32_28
REMARK    9  A    between atoms: C27_24  and  C33_29
REMARK   10  A    between atoms: C31_30  and  O2_32
REMARK                            x       y       z     vdW  Elec       q    Type
REMARK                         _______ _______ _______ _____ _____    ______ ____
ROOT
ATOM      1  C4  UNK     0      -0.597   0.581   0.364  0.00  0.00    +0.000 C 
ATOM      2  C5  UNK     0      -1.342  -0.599  -0.367  0.00  0.00    +0.000 C 
ATOM      3  C6  UNK     0      -2.889  -0.388  -0.677  0.00  0.00    +0.000 C 
ATOM      4  C7  UNK     0       0.872   0.061   0.774  0.00  0.00    +0.000 C 
ATOM      5  C8  UNK     0      -3.592   0.019   0.672  0.00  0.00    +0.000 C 
ATOM      6  C9  UNK     0      -1.421   1.009   1.620  0.00  0.00    +0.000 C 
ATOM      7  C10 UNK     0       1.625  -0.260  -0.532  0.00  0.00    +0.000 C 
ATOM      8  C11 UNK     0      -2.915   1.243   1.343  0.00  0.00    +0.000 C 
ATOM      9  C12 UNK     0      -5.182   0.095   0.639  0.00  0.00    +0.000 C 
ATOM     10  C13 UNK     0       3.127  -0.026  -0.698  0.00  0.00    +0.000 C 
ATOM     11  C14 UNK     0      -0.513  -1.194  -1.551  0.00  0.00    +0.000 C 
ATOM     12  C15 UNK     0       1.616   1.110   1.682  0.00  0.00    +0.000 C 
ATOM     13  C16 UNK     0      -3.483  -1.765  -1.165  0.00  0.00    +0.000 C 
ATOM     14  C17 UNK     0       3.629   1.211   0.110  0.00  0.00    +0.000 C 
ATOM     15  C18 UNK     0      -0.470   1.823  -0.589  0.00  0.00    +0.000 C 
ATOM     16  C19 UNK     0       3.148   1.085   1.576  0.00  0.00    +0.000 C 
ATOM     17  C20 UNK     0      -5.792  -0.878  -0.438  0.00  0.00    +0.000 C 
ATOM     18  C21 UNK     0       0.971  -0.886  -1.540  0.00  0.00    +0.000 C 
ATOM     19  C22 UNK     0      -3.114   0.679  -1.801  0.00  0.00    +0.000 C 
ATOM     20  C23 UNK     0      -4.905  -2.105  -0.667  0.00  0.00    +0.000 C 
ATOM     21  C24 UNK     0       0.856  -1.275   1.589  0.00  0.00    +0.000 C 
ATOM     22  C25 UNK     0       3.897  -1.330  -0.367  0.00  0.00    +0.000 C 
ATOM     23  C26 UNK     0       5.178   1.313   0.050  0.00  0.00    +0.000 C 
ATOM     24  C27 UNK     0       5.438  -1.190  -0.465  0.00  0.00    +0.000 C 
ATOM     25  C28 UNK     0      -5.718  -0.351   2.030  0.00  0.00    +0.000 C 
ATOM     26  C29 UNK     0      -5.720   1.536   0.412  0.00  0.00    +0.000 C 
ATOM     27  C30 UNK     0       5.905   0.005   0.399  0.00  0.00    +0.000 C 
ATOM     28  C32 UNK     0       6.091  -2.477   0.085  0.00  0.00    +0.000 C 
ATOM     29  C33 UNK     0       5.889  -1.023  -1.939  0.00  0.00    +0.000 C 
ENDROOT
BRANCH  14  30
ATOM     30  C31 UNK     0       3.100   2.511  -0.486  0.00  0.00    +0.000 C 
ATOM     31  O3  UNK     0       2.593   2.540  -1.644  0.00  0.00    +0.000 OA
BRANCH  30  32
ATOM     32  O2  UNK     0       3.222   3.701   0.229  0.00  0.00    +0.000 OA
ATOM     33  H81 UNK     0       2.893   4.576  -0.161  0.00  0.00    +0.000 HD
ENDBRANCH  30  32
ENDBRANCH  14  30
BRANCH  17  34
ATOM     34  O1  UNK     0      -6.026  -0.247  -1.674  0.00  0.00    +0.000 OA
ATOM     35  H80 UNK     0      -6.928   0.167  -1.642  0.00  0.00    +0.000 HD
ENDBRANCH  17  34
TORSDOF 3
