REMARK  Name = C:\Users\Maximilian\Desktop\Conformers\converted_pdb\conformers_pdb\Paclitaxel_conf_65.pdb
REMARK  23 active torsions:
REMARK  status: ('A' for Active; 'I' for Inactive)
REMARK    1  A    between atoms: C17_4  and  O2_61
REMARK    2  A    between atoms: C18_5  and  C29_16
REMARK    3  A    between atoms: C20_7  and  O3_52
REMARK    4  A    between atoms: C21_8  and  O4_46
REMARK    5  A    between atoms: C22_9  and  O5_65
REMARK    6  A    between atoms: C24_11  and  C33_20
REMARK    7  A    between atoms: C24_11  and  C34_21
REMARK    8  A    between atoms: C30_17  and  O6_48
REMARK    9  A    between atoms: C31_18  and  O8_23
REMARK   10  A    between atoms: C32_19  and  C35_22
REMARK   11  A    between atoms: O8_23  and  C40_24
REMARK   12  A    between atoms: C40_24  and  C42_26
REMARK   13  A    between atoms: C42_26  and  O13_27
REMARK   14  A    between atoms: C42_26  and  C46_29
REMARK   15  A    between atoms: C46_29  and  N15_30
REMARK   16  A    between atoms: C46_29  and  C50_40
REMARK   17  A    between atoms: C53_32  and  C56_34
REMARK   18  A    between atoms: O6_48  and  C39_49
REMARK   19  A    between atoms: C39_49  and  C43_50
REMARK   20  A    between atoms: O3_52  and  C37_53
REMARK   21  A    between atoms: C37_53  and  C41_55
REMARK   22  A    between atoms: O2_61  and  C36_62
REMARK   23  A    between atoms: C36_62  and  C38_64
REMARK                            x       y       z     vdW  Elec       q    Type
REMARK                         _______ _______ _______ _____ _____    ______ ____
ROOT
ATOM      1  O1  UNK     0      -5.230  -1.336  -1.873  0.00  0.00    +0.000 OA
ATOM      2  O7  UNK     0      -3.498  -0.945   3.732  0.00  0.00    +0.000 OA
ATOM      3  C16 UNK     0      -2.870  -0.154   0.210  0.00  0.00    +0.000 C 
ATOM      4  C17 UNK     0      -3.370  -0.508  -1.251  0.00  0.00    +0.000 C 
ATOM      5  C18 UNK     0      -3.506  -1.085   1.340  0.00  0.00    +0.000 C 
ATOM      6  C19 UNK     0      -3.975  -1.886  -1.542  0.00  0.00    +0.000 C 
ATOM      7  C20 UNK     0      -2.836   1.420   0.489  0.00  0.00    +0.000 C 
ATOM      8  C21 UNK     0      -1.465   2.065   1.003  0.00  0.00    +0.000 C 
ATOM      9  C22 UNK     0      -3.317  -2.564   0.867  0.00  0.00    +0.000 C 
ATOM     10  C23 UNK     0      -4.114  -2.911  -0.399  0.00  0.00    +0.000 C 
ATOM     11  C24 UNK     0      -0.987   1.558   2.424  0.00  0.00    +0.000 C 
ATOM     12  C25 UNK     0      -4.759  -0.029  -1.648  0.00  0.00    +0.000 C 
ATOM     13  C26 UNK     0      -2.806  -0.968   2.719  0.00  0.00    +0.000 C 
ATOM     14  C27 UNK     0      -0.333   1.832  -0.075  0.00  0.00    +0.000 C 
ATOM     15  C28 UNK     0      -0.566   0.080   2.223  0.00  0.00    +0.000 C 
ATOM     16  C29 UNK     0      -5.026  -0.778   1.551  0.00  0.00    +0.000 C 
ATOM     17  C30 UNK     0      -1.302  -1.056   2.921  0.00  0.00    +0.000 C 
ATOM     18  C31 UNK     0       0.853   0.923   0.352  0.00  0.00    +0.000 C 
ATOM     19  C32 UNK     0       0.390  -0.195   1.276  0.00  0.00    +0.000 C 
ATOM     20  C33 UNK     0      -2.077   1.792   3.523  0.00  0.00    +0.000 C 
ATOM     21  C34 UNK     0       0.255   2.375   2.938  0.00  0.00    +0.000 C 
ATOM     22  C35 UNK     0       0.968  -1.587   1.103  0.00  0.00    +0.000 C 
ENDROOT
BRANCH   8  23
ATOM     23  O4  UNK     0      -1.650   3.465   1.077  0.00  0.00    +0.000 OA
ATOM     24  H84 UNK     0      -2.462   3.654   1.615  0.00  0.00    +0.000 HD
ENDBRANCH   8  23
BRANCH   9  25
ATOM     25  O5  UNK     0      -3.595  -3.493   1.888  0.00  0.00    +0.000 OA
ATOM     26  H85 UNK     0      -4.567  -3.472   2.074  0.00  0.00    +0.000 HD
ENDBRANCH   9  25
BRANCH  18  27
ATOM     27  O8  UNK     0       1.504   0.399  -0.809  0.00  0.00    +0.000 OA
BRANCH  27  28
ATOM     28  C40 UNK     0       2.383   1.153  -1.601  0.00  0.00    +0.000 C 
ATOM     29  O12 UNK     0       2.446   2.405  -1.473  0.00  0.00    +0.000 OA
BRANCH  28  30
ATOM     30  C42 UNK     0       3.327   0.464  -2.554  0.00  0.00    +0.000 C 
BRANCH  30  31
ATOM     31  O13 UNK     0       2.798  -0.755  -3.019  0.00  0.00    +0.000 OA
ATOM     32 1H10 UNK     0       2.665  -1.358  -2.245  0.00  0.00    +0.000 HD
ENDBRANCH  30  31
BRANCH  30  33
ATOM     33  C46 UNK     0       4.736   0.296  -1.922  0.00  0.00    +0.000 C 
BRANCH  33  34
ATOM     34  C50 UNK     0       5.678  -0.395  -2.888  0.00  0.00    +0.000 A 
ATOM     35  C52 UNK     0       5.711  -1.800  -2.992  0.00  0.00    +0.000 A 
ATOM     36  C55 UNK     0       6.571  -2.422  -3.903  0.00  0.00    +0.000 A 
ATOM     37  C57 UNK     0       7.397  -1.652  -4.725  0.00  0.00    +0.000 A 
ATOM     38  C54 UNK     0       7.362  -0.258  -4.641  0.00  0.00    +0.000 A 
ATOM     39  C51 UNK     0       6.502   0.371  -3.733  0.00  0.00    +0.000 A 
ENDBRANCH  33  34
BRANCH  33  40
ATOM     40  N15 UNK     0       4.688  -0.426  -0.643  0.00  0.00    +0.000 N 
ATOM     41 3H10 UNK     0       3.826  -0.949  -0.386  0.00  0.00    +0.000 HD
ATOM     42  C53 UNK     0       5.780  -0.412   0.291  0.00  0.00    +0.000 C 
ATOM     43  O14 UNK     0       6.733   0.400   0.126  0.00  0.00    +0.000 OA
BRANCH  42  44
ATOM     44  C56 UNK     0       5.790  -1.320   1.463  0.00  0.00    +0.000 A 
ATOM     45  C59 UNK     0       5.087  -2.541   1.440  0.00  0.00    +0.000 A 
ATOM     46  C61 UNK     0       5.100  -3.385   2.554  0.00  0.00    +0.000 A 
ATOM     47  C62 UNK     0       5.821  -3.028   3.696  0.00  0.00    +0.000 A 
ATOM     48  C60 UNK     0       6.532  -1.826   3.726  0.00  0.00    +0.000 A 
ATOM     49  C58 UNK     0       6.520  -0.976   2.616  0.00  0.00    +0.000 A 
ENDBRANCH  42  44
ENDBRANCH  33  40
ENDBRANCH  30  33
ENDBRANCH  28  30
ENDBRANCH  27  28
ENDBRANCH  18  27
BRANCH  17  50
ATOM     50  O6  UNK     0      -0.953  -1.029   4.308  0.00  0.00    +0.000 OA
BRANCH  50  51
ATOM     51  C39 UNK     0      -1.118  -2.117   5.173  0.00  0.00    +0.000 C 
ATOM     52  C43 UNK     0      -0.779  -1.962   6.616  0.00  0.00    +0.000 C 
ATOM     53  O11 UNK     0      -1.497  -3.239   4.735  0.00  0.00    +0.000 OA
ENDBRANCH  50  51
ENDBRANCH  17  50
BRANCH   7  54
ATOM     54  O3  UNK     0      -3.181   2.118  -0.715  0.00  0.00    +0.000 OA
BRANCH  54  55
ATOM     55  C37 UNK     0      -4.121   3.153  -0.818  0.00  0.00    +0.000 C 
ATOM     56  O10 UNK     0      -4.727   3.573   0.205  0.00  0.00    +0.000 OA
BRANCH  55  57
ATOM     57  C41 UNK     0      -4.417   3.727  -2.148  0.00  0.00    +0.000 A 
ATOM     58  C45 UNK     0      -3.677   3.316  -3.273  0.00  0.00    +0.000 A 
ATOM     59  C48 UNK     0      -3.970   3.834  -4.539  0.00  0.00    +0.000 A 
ATOM     60  C49 UNK     0      -5.004   4.760  -4.695  0.00  0.00    +0.000 A 
ATOM     61  C47 UNK     0      -5.744   5.174  -3.585  0.00  0.00    +0.000 A 
ATOM     62  C44 UNK     0      -5.454   4.663  -2.316  0.00  0.00    +0.000 A 
ENDBRANCH  55  57
ENDBRANCH  54  55
ENDBRANCH   7  54
BRANCH   4  63
ATOM     63  O2  UNK     0      -2.435  -0.115  -2.262  0.00  0.00    +0.000 OA
BRANCH  63  64
ATOM     64  C36 UNK     0      -1.255  -0.803  -2.568  0.00  0.00    +0.000 C 
ATOM     65  O9  UNK     0      -0.892  -1.804  -1.894  0.00  0.00    +0.000 OA
ATOM     66  C38 UNK     0      -0.411  -0.320  -3.696  0.00  0.00    +0.000 C 
ENDBRANCH  63  64
ENDBRANCH   4  63
TORSDOF 17
