REMARK  Name = C:\Users\Maximilian\Desktop\Conformers\converted_pdb\conformers_pdb\Paclitaxel_conf_8.pdb
REMARK  23 active torsions:
REMARK  status: ('A' for Active; 'I' for Inactive)
REMARK    1  A    between atoms: C17_4  and  O2_61
REMARK    2  A    between atoms: C18_5  and  C29_16
REMARK    3  A    between atoms: C20_7  and  O3_52
REMARK    4  A    between atoms: C21_8  and  O4_46
REMARK    5  A    between atoms: C22_9  and  O5_65
REMARK    6  A    between atoms: C24_11  and  C33_20
REMARK    7  A    between atoms: C24_11  and  C34_21
REMARK    8  A    between atoms: C30_17  and  O6_48
REMARK    9  A    between atoms: C31_18  and  O8_23
REMARK   10  A    between atoms: C32_19  and  C35_22
REMARK   11  A    between atoms: O8_23  and  C40_24
REMARK   12  A    between atoms: C40_24  and  C42_26
REMARK   13  A    between atoms: C42_26  and  O13_27
REMARK   14  A    between atoms: C42_26  and  C46_29
REMARK   15  A    between atoms: C46_29  and  N15_30
REMARK   16  A    between atoms: C46_29  and  C50_40
REMARK   17  A    between atoms: C53_32  and  C56_34
REMARK   18  A    between atoms: O6_48  and  C39_49
REMARK   19  A    between atoms: C39_49  and  C43_50
REMARK   20  A    between atoms: O3_52  and  C37_53
REMARK   21  A    between atoms: C37_53  and  C41_55
REMARK   22  A    between atoms: O2_61  and  C36_62
REMARK   23  A    between atoms: C36_62  and  C38_64
REMARK                            x       y       z     vdW  Elec       q    Type
REMARK                         _______ _______ _______ _____ _____    ______ ____
ROOT
ATOM      1  O1  UNK     0      -4.883  -1.810   0.136  0.00  0.00    +0.000 OA
ATOM      2  O7  UNK     0      -1.889   0.593   4.720  0.00  0.00    +0.000 OA
ATOM      3  C16 UNK     0      -2.309   0.132   1.128  0.00  0.00    +0.000 C 
ATOM      4  C17 UNK     0      -3.089  -0.675   0.015  0.00  0.00    +0.000 C 
ATOM      5  C18 UNK     0      -2.508  -0.398   2.621  0.00  0.00    +0.000 C 
ATOM      6  C19 UNK     0      -3.515  -2.116   0.325  0.00  0.00    +0.000 C 
ATOM      7  C20 UNK     0      -2.372   1.709   0.935  0.00  0.00    +0.000 C 
ATOM      8  C21 UNK     0      -1.001   2.502   0.710  0.00  0.00    +0.000 C 
ATOM      9  C22 UNK     0      -2.260  -1.942   2.584  0.00  0.00    +0.000 C 
ATOM     10  C23 UNK     0      -3.302  -2.696   1.739  0.00  0.00    +0.000 C 
ATOM     11  C24 UNK     0      -0.059   2.510   1.978  0.00  0.00    +0.000 C 
ATOM     12  C25 UNK     0      -4.586  -0.447  -0.123  0.00  0.00    +0.000 C 
ATOM     13  C26 UNK     0      -1.489   0.210   3.629  0.00  0.00    +0.000 C 
ATOM     14  C27 UNK     0      -0.236   1.925  -0.544  0.00  0.00    +0.000 C 
ATOM     15  C28 UNK     0       0.419   1.059   2.178  0.00  0.00    +0.000 C 
ATOM     16  C29 UNK     0      -3.952  -0.095   3.152  0.00  0.00    +0.000 C 
ATOM     17  C30 UNK     0       0.018   0.232   3.401  0.00  0.00    +0.000 C 
ATOM     18  C31 UNK     0       0.988   0.995  -0.270  0.00  0.00    +0.000 C 
ATOM     19  C32 UNK     0       1.078   0.453   1.144  0.00  0.00    +0.000 C 
ATOM     20  C33 UNK     0      -0.759   3.155   3.218  0.00  0.00    +0.000 C 
ATOM     21  C34 UNK     0       1.202   3.417   1.785  0.00  0.00    +0.000 C 
ATOM     22  C35 UNK     0       1.870  -0.823   1.334  0.00  0.00    +0.000 C 
ENDROOT
BRANCH   8  23
ATOM     23  O4  UNK     0      -1.390   3.836   0.428  0.00  0.00    +0.000 OA
ATOM     24  H84 UNK     0      -0.603   4.365   0.141  0.00  0.00    +0.000 HD
ENDBRANCH   8  23
BRANCH   9  25
ATOM     25  O5  UNK     0      -2.169  -2.497   3.873  0.00  0.00    +0.000 OA
ATOM     26  H85 UNK     0      -3.087  -2.509   4.272  0.00  0.00    +0.000 HD
ENDBRANCH   9  25
BRANCH  18  27
ATOM     27  O8  UNK     0       0.951  -0.117  -1.172  0.00  0.00    +0.000 OA
BRANCH  27  28
ATOM     28  C40 UNK     0       1.619  -0.143  -2.404  0.00  0.00    +0.000 C 
ATOM     29  O12 UNK     0       1.982   0.932  -2.958  0.00  0.00    +0.000 OA
BRANCH  28  30
ATOM     30  C42 UNK     0       1.989  -1.468  -3.020  0.00  0.00    +0.000 C 
BRANCH  30  31
ATOM     31  O13 UNK     0       1.155  -2.474  -2.500  0.00  0.00    +0.000 OA
ATOM     32 1H10 UNK     0       0.267  -2.381  -2.933  0.00  0.00    +0.000 HD
ENDBRANCH  30  31
BRANCH  30  33
ATOM     33  C46 UNK     0       3.494  -1.803  -2.739  0.00  0.00    +0.000 C 
BRANCH  33  34
ATOM     34  C50 UNK     0       4.341  -1.642  -3.990  0.00  0.00    +0.000 A 
ATOM     35  C52 UNK     0       4.130  -2.469  -5.112  0.00  0.00    +0.000 A 
ATOM     36  C55 UNK     0       4.940  -2.346  -6.246  0.00  0.00    +0.000 A 
ATOM     37  C57 UNK     0       5.968  -1.399  -6.274  0.00  0.00    +0.000 A 
ATOM     38  C54 UNK     0       6.178  -0.566  -5.172  0.00  0.00    +0.000 A 
ATOM     39  C51 UNK     0       5.371  -0.685  -4.036  0.00  0.00    +0.000 A 
ENDBRANCH  33  34
BRANCH  33  40
ATOM     40  N15 UNK     0       3.656  -3.160  -2.208  0.00  0.00    +0.000 N 
ATOM     41 3H10 UNK     0       3.759  -3.985  -2.858  0.00  0.00    +0.000 HD
ATOM     42  C53 UNK     0       3.627  -3.432  -0.802  0.00  0.00    +0.000 C 
ATOM     43  O14 UNK     0       2.658  -4.087  -0.327  0.00  0.00    +0.000 OA
BRANCH  42  44
ATOM     44  C56 UNK     0       4.717  -2.957   0.087  0.00  0.00    +0.000 A 
ATOM     45  C59 UNK     0       5.938  -2.506  -0.454  0.00  0.00    +0.000 A 
ATOM     46  C61 UNK     0       6.965  -2.064   0.389  0.00  0.00    +0.000 A 
ATOM     47  C62 UNK     0       6.781  -2.055   1.772  0.00  0.00    +0.000 A 
ATOM     48  C60 UNK     0       5.578  -2.510   2.321  0.00  0.00    +0.000 A 
ATOM     49  C58 UNK     0       4.552  -2.965   1.485  0.00  0.00    +0.000 A 
ENDBRANCH  42  44
ENDBRANCH  33  40
ENDBRANCH  30  33
ENDBRANCH  28  30
ENDBRANCH  27  28
ENDBRANCH  18  27
BRANCH  17  50
ATOM     50  O6  UNK     0       0.718   0.739   4.537  0.00  0.00    +0.000 OA
BRANCH  50  51
ATOM     51  C39 UNK     0       1.005  -0.026   5.675  0.00  0.00    +0.000 C 
ATOM     52  C43 UNK     0       1.754   0.599   6.803  0.00  0.00    +0.000 C 
ATOM     53  O11 UNK     0       0.675  -1.244   5.740  0.00  0.00    +0.000 OA
ENDBRANCH  50  51
ENDBRANCH  17  50
BRANCH   7  54
ATOM     54  O3  UNK     0      -3.253   2.036  -0.149  0.00  0.00    +0.000 OA
BRANCH  54  55
ATOM     55  C37 UNK     0      -4.212   3.062  -0.116  0.00  0.00    +0.000 C 
ATOM     56  O10 UNK     0      -4.346   3.778   0.918  0.00  0.00    +0.000 OA
BRANCH  55  57
ATOM     57  C41 UNK     0      -5.089   3.287  -1.290  0.00  0.00    +0.000 A 
ATOM     58  C45 UNK     0      -6.128   4.236  -1.236  0.00  0.00    +0.000 A 
ATOM     59  C48 UNK     0      -6.968   4.427  -2.337  0.00  0.00    +0.000 A 
ATOM     60  C49 UNK     0      -6.778   3.679  -3.502  0.00  0.00    +0.000 A 
ATOM     61  C47 UNK     0      -5.751   2.731  -3.566  0.00  0.00    +0.000 A 
ATOM     62  C44 UNK     0      -4.906   2.540  -2.469  0.00  0.00    +0.000 A 
ENDBRANCH  55  57
ENDBRANCH  54  55
ENDBRANCH   7  54
BRANCH   4  63
ATOM     63  O2  UNK     0      -2.401  -0.564  -1.251  0.00  0.00    +0.000 OA
BRANCH  63  64
ATOM     64  C36 UNK     0      -2.784  -1.082  -2.499  0.00  0.00    +0.000 C 
ATOM     65  O9  UNK     0      -3.793  -1.824  -2.628  0.00  0.00    +0.000 OA
ATOM     66  C38 UNK     0      -1.990  -0.714  -3.708  0.00  0.00    +0.000 C 
ENDBRANCH  63  64
ENDBRANCH   4  63
TORSDOF 17
