REMARK  Name = C:\Users\Maximilian\Desktop\Conformers\converted_pdb\conformers_pdb\Paclitaxel_conf_62.pdb
REMARK  23 active torsions:
REMARK  status: ('A' for Active; 'I' for Inactive)
REMARK    1  A    between atoms: C17_4  and  O2_61
REMARK    2  A    between atoms: C18_5  and  C29_16
REMARK    3  A    between atoms: C20_7  and  O3_52
REMARK    4  A    between atoms: C21_8  and  O4_46
REMARK    5  A    between atoms: C22_9  and  O5_65
REMARK    6  A    between atoms: C24_11  and  C33_20
REMARK    7  A    between atoms: C24_11  and  C34_21
REMARK    8  A    between atoms: C30_17  and  O6_48
REMARK    9  A    between atoms: C31_18  and  O8_23
REMARK   10  A    between atoms: C32_19  and  C35_22
REMARK   11  A    between atoms: O8_23  and  C40_24
REMARK   12  A    between atoms: C40_24  and  C42_26
REMARK   13  A    between atoms: C42_26  and  O13_27
REMARK   14  A    between atoms: C42_26  and  C46_29
REMARK   15  A    between atoms: C46_29  and  N15_30
REMARK   16  A    between atoms: C46_29  and  C50_40
REMARK   17  A    between atoms: C53_32  and  C56_34
REMARK   18  A    between atoms: O6_48  and  C39_49
REMARK   19  A    between atoms: C39_49  and  C43_50
REMARK   20  A    between atoms: O3_52  and  C37_53
REMARK   21  A    between atoms: C37_53  and  C41_55
REMARK   22  A    between atoms: O2_61  and  C36_62
REMARK   23  A    between atoms: C36_62  and  C38_64
REMARK                            x       y       z     vdW  Elec       q    Type
REMARK                         _______ _______ _______ _____ _____    ______ ____
ROOT
ATOM      1  O1  UNK     0      -4.649   0.073   2.276  0.00  0.00    +0.000 OA
ATOM      2  O7  UNK     0      -4.277   3.205  -2.777  0.00  0.00    +0.000 OA
ATOM      3  C16 UNK     0      -2.834   0.799  -0.463  0.00  0.00    +0.000 C 
ATOM      4  C17 UNK     0      -2.968   0.175   0.981  0.00  0.00    +0.000 C 
ATOM      5  C18 UNK     0      -3.798   2.035  -0.741  0.00  0.00    +0.000 C 
ATOM      6  C19 UNK     0      -3.607   1.011   2.095  0.00  0.00    +0.000 C 
ATOM      7  C20 UNK     0      -2.725  -0.303  -1.614  0.00  0.00    +0.000 C 
ATOM      8  C21 UNK     0      -1.441  -0.268  -2.566  0.00  0.00    +0.000 C 
ATOM      9  C22 UNK     0      -3.679   3.011   0.468  0.00  0.00    +0.000 C 
ATOM     10  C23 UNK     0      -4.192   2.399   1.773  0.00  0.00    +0.000 C 
ATOM     11  C24 UNK     0      -1.307   1.029  -3.467  0.00  0.00    +0.000 C 
ATOM     12  C25 UNK     0      -4.146  -0.749   1.248  0.00  0.00    +0.000 C 
ATOM     13  C26 UNK     0      -3.399   2.842  -2.002  0.00  0.00    +0.000 C 
ATOM     14  C27 UNK     0      -0.138  -0.469  -1.700  0.00  0.00    +0.000 C 
ATOM     15  C28 UNK     0      -1.000   2.193  -2.497  0.00  0.00    +0.000 C 
ATOM     16  C29 UNK     0      -5.285   1.588  -0.912  0.00  0.00    +0.000 C 
ATOM     17  C30 UNK     0      -1.986   3.340  -2.274  0.00  0.00    +0.000 C 
ATOM     18  C31 UNK     0       0.822   0.745  -1.571  0.00  0.00    +0.000 C 
ATOM     19  C32 UNK     0       0.106   2.083  -1.694  0.00  0.00    +0.000 C 
ATOM     20  C33 UNK     0      -2.562   1.258  -4.372  0.00  0.00    +0.000 C 
ATOM     21  C34 UNK     0      -0.117   0.894  -4.490  0.00  0.00    +0.000 C 
ATOM     22  C35 UNK     0       0.625   3.259  -0.890  0.00  0.00    +0.000 C 
ENDROOT
BRANCH   8  23
ATOM     23  O4  UNK     0      -1.509  -1.393  -3.419  0.00  0.00    +0.000 OA
ATOM     24  H84 UNK     0      -2.363  -1.363  -3.921  0.00  0.00    +0.000 HD
ENDBRANCH   8  23
BRANCH   9  25
ATOM     25  O5  UNK     0      -4.386   4.202   0.209  0.00  0.00    +0.000 OA
ATOM     26  H85 UNK     0      -4.021   4.894   0.822  0.00  0.00    +0.000 HD
ENDBRANCH   9  25
BRANCH  18  27
ATOM     27  O8  UNK     0       1.500   0.631  -0.314  0.00  0.00    +0.000 OA
BRANCH  27  28
ATOM     28  C40 UNK     0       2.882   0.816  -0.158  0.00  0.00    +0.000 C 
ATOM     29  O12 UNK     0       3.617   1.094  -1.148  0.00  0.00    +0.000 OA
BRANCH  28  30
ATOM     30  C42 UNK     0       3.500   0.702   1.209  0.00  0.00    +0.000 C 
BRANCH  30  31
ATOM     31  O13 UNK     0       4.196   1.893   1.490  0.00  0.00    +0.000 OA
ATOM     32 1H10 UNK     0       3.514   2.592   1.688  0.00  0.00    +0.000 HD
ENDBRANCH  30  31
BRANCH  30  33
ATOM     33  C46 UNK     0       4.482  -0.493   1.271  0.00  0.00    +0.000 C 
BRANCH  33  34
ATOM     34  C50 UNK     0       3.743  -1.817   1.271  0.00  0.00    +0.000 A 
ATOM     35  C52 UNK     0       3.363  -2.448   2.476  0.00  0.00    +0.000 A 
ATOM     36  C55 UNK     0       2.678  -3.664   2.449  0.00  0.00    +0.000 A 
ATOM     37  C57 UNK     0       2.327  -4.249   1.231  0.00  0.00    +0.000 A 
ATOM     38  C54 UNK     0       2.668  -3.615   0.031  0.00  0.00    +0.000 A 
ATOM     39  C51 UNK     0       3.374  -2.410   0.050  0.00  0.00    +0.000 A 
ENDBRANCH  33  34
BRANCH  33  40
ATOM     40  N15 UNK     0       5.352  -0.384   2.451  0.00  0.00    +0.000 N 
ATOM     41 3H10 UNK     0       4.998   0.132   3.292  0.00  0.00    +0.000 HD
ATOM     42  C53 UNK     0       6.697  -0.896   2.455  0.00  0.00    +0.000 C 
ATOM     43  O14 UNK     0       7.122  -1.559   1.468  0.00  0.00    +0.000 OA
BRANCH  42  44
ATOM     44  C56 UNK     0       7.621  -0.627   3.582  0.00  0.00    +0.000 A 
ATOM     45  C59 UNK     0       9.004  -0.522   3.345  0.00  0.00    +0.000 A 
ATOM     46  C61 UNK     0       9.887  -0.239   4.391  0.00  0.00    +0.000 A 
ATOM     47  C62 UNK     0       9.400  -0.050   5.687  0.00  0.00    +0.000 A 
ATOM     48  C60 UNK     0       8.029  -0.164   5.940  0.00  0.00    +0.000 A 
ATOM     49  C58 UNK     0       7.143  -0.454   4.898  0.00  0.00    +0.000 A 
ENDBRANCH  42  44
ENDBRANCH  33  40
ENDBRANCH  30  33
ENDBRANCH  28  30
ENDBRANCH  27  28
ENDBRANCH  18  27
BRANCH  17  50
ATOM     50  O6  UNK     0      -1.937   4.220  -3.400  0.00  0.00    +0.000 OA
BRANCH  50  51
ATOM     51  C39 UNK     0      -2.418   5.537  -3.369  0.00  0.00    +0.000 C 
ATOM     52  C43 UNK     0      -2.280   6.402  -4.577  0.00  0.00    +0.000 C 
ATOM     53  O11 UNK     0      -2.948   6.009  -2.324  0.00  0.00    +0.000 OA
ENDBRANCH  50  51
ENDBRANCH  17  50
BRANCH   7  54
ATOM     54  O3  UNK     0      -2.752  -1.609  -1.023  0.00  0.00    +0.000 OA
BRANCH  54  55
ATOM     55  C37 UNK     0      -3.521  -2.692  -1.469  0.00  0.00    +0.000 C 
ATOM     56  O10 UNK     0      -4.356  -2.545  -2.401  0.00  0.00    +0.000 OA
BRANCH  55  57
ATOM     57  C41 UNK     0      -3.359  -4.007  -0.816  0.00  0.00    +0.000 A 
ATOM     58  C45 UNK     0      -2.312  -4.206   0.106  0.00  0.00    +0.000 A 
ATOM     59  C48 UNK     0      -2.146  -5.445   0.733  0.00  0.00    +0.000 A 
ATOM     60  C49 UNK     0      -3.021  -6.498   0.450  0.00  0.00    +0.000 A 
ATOM     61  C47 UNK     0      -4.065  -6.312  -0.461  0.00  0.00    +0.000 A 
ATOM     62  C44 UNK     0      -4.235  -5.073  -1.091  0.00  0.00    +0.000 A 
ENDBRANCH  55  57
ENDBRANCH  54  55
ENDBRANCH   7  54
BRANCH   4  63
ATOM     63  O2  UNK     0      -1.708  -0.404   1.377  0.00  0.00    +0.000 OA
BRANCH  63  64
ATOM     64  C36 UNK     0      -1.396  -1.093   2.561  0.00  0.00    +0.000 C 
ATOM     65  O9  UNK     0      -2.249  -1.274   3.474  0.00  0.00    +0.000 OA
ATOM     66  C38 UNK     0      -0.029  -1.658   2.721  0.00  0.00    +0.000 C 
ENDBRANCH  63  64
ENDBRANCH   4  63
TORSDOF 17
