REMARK  Name = C:\Users\Maximilian\Desktop\Conformers\converted_pdb\conformers_pdb\Paclitaxel_conf_72.pdb
REMARK  23 active torsions:
REMARK  status: ('A' for Active; 'I' for Inactive)
REMARK    1  A    between atoms: C17_4  and  O2_61
REMARK    2  A    between atoms: C18_5  and  C29_16
REMARK    3  A    between atoms: C20_7  and  O3_52
REMARK    4  A    between atoms: C21_8  and  O4_46
REMARK    5  A    between atoms: C22_9  and  O5_65
REMARK    6  A    between atoms: C24_11  and  C33_20
REMARK    7  A    between atoms: C24_11  and  C34_21
REMARK    8  A    between atoms: C30_17  and  O6_48
REMARK    9  A    between atoms: C31_18  and  O8_23
REMARK   10  A    between atoms: C32_19  and  C35_22
REMARK   11  A    between atoms: O8_23  and  C40_24
REMARK   12  A    between atoms: C40_24  and  C42_26
REMARK   13  A    between atoms: C42_26  and  O13_27
REMARK   14  A    between atoms: C42_26  and  C46_29
REMARK   15  A    between atoms: C46_29  and  N15_30
REMARK   16  A    between atoms: C46_29  and  C50_40
REMARK   17  A    between atoms: C53_32  and  C56_34
REMARK   18  A    between atoms: O6_48  and  C39_49
REMARK   19  A    between atoms: C39_49  and  C43_50
REMARK   20  A    between atoms: O3_52  and  C37_53
REMARK   21  A    between atoms: C37_53  and  C41_55
REMARK   22  A    between atoms: O2_61  and  C36_62
REMARK   23  A    between atoms: C36_62  and  C38_64
REMARK                            x       y       z     vdW  Elec       q    Type
REMARK                         _______ _______ _______ _____ _____    ______ ____
ROOT
ATOM      1  O1  UNK     0      -4.994   0.413  -1.796  0.00  0.00    +0.000 OA
ATOM      2  O7  UNK     0      -4.340  -2.928   2.894  0.00  0.00    +0.000 OA
ATOM      3  C16 UNK     0      -2.898  -0.309   0.684  0.00  0.00    +0.000 C 
ATOM      4  C17 UNK     0      -3.168   0.412  -0.704  0.00  0.00    +0.000 C 
ATOM      5  C18 UNK     0      -4.101  -1.243   1.224  0.00  0.00    +0.000 C 
ATOM      6  C19 UNK     0      -3.871  -0.436  -1.756  0.00  0.00    +0.000 C 
ATOM      7  C20 UNK     0      -2.212   0.614   1.788  0.00  0.00    +0.000 C 
ATOM      8  C21 UNK     0      -0.815   0.168   2.429  0.00  0.00    +0.000 C 
ATOM      9  C22 UNK     0      -4.944  -1.880   0.037  0.00  0.00    +0.000 C 
ATOM     10  C23 UNK     0      -4.209  -1.860  -1.308  0.00  0.00    +0.000 C 
ATOM     11  C24 UNK     0      -0.837  -1.259   3.125  0.00  0.00    +0.000 C 
ATOM     12  C25 UNK     0      -4.394   1.291  -0.869  0.00  0.00    +0.000 C 
ATOM     13  C26 UNK     0      -3.575  -2.432   2.073  0.00  0.00    +0.000 C 
ATOM     14  C27 UNK     0       0.326   0.222   1.335  0.00  0.00    +0.000 C 
ATOM     15  C28 UNK     0      -1.008  -2.286   1.983  0.00  0.00    +0.000 C 
ATOM     16  C29 UNK     0      -5.090  -0.448   2.159  0.00  0.00    +0.000 C 
ATOM     17  C30 UNK     0      -2.260  -3.159   1.830  0.00  0.00    +0.000 C 
ATOM     18  C31 UNK     0       0.934  -1.142   0.902  0.00  0.00    +0.000 C 
ATOM     19  C32 UNK     0      -0.067  -2.284   0.984  0.00  0.00    +0.000 C 
ATOM     20  C33 UNK     0      -1.907  -1.336   4.251  0.00  0.00    +0.000 C 
ATOM     21  C34 UNK     0       0.501  -1.585   3.884  0.00  0.00    +0.000 C 
ATOM     22  C35 UNK     0      -0.007  -3.389  -0.053  0.00  0.00    +0.000 C 
ENDROOT
BRANCH   8  23
ATOM     23  O4  UNK     0      -0.547   1.142   3.419  0.00  0.00    +0.000 OA
ATOM     24  H84 UNK     0       0.375   1.040   3.760  0.00  0.00    +0.000 HD
ENDBRANCH   8  23
BRANCH   9  25
ATOM     25  O5  UNK     0      -6.196  -1.253  -0.121  0.00  0.00    +0.000 OA
ATOM     26  H85 UNK     0      -6.764  -1.864  -0.663  0.00  0.00    +0.000 HD
ENDBRANCH   9  25
BRANCH  18  27
ATOM     27  O8  UNK     0       1.458  -1.024  -0.424  0.00  0.00    +0.000 OA
BRANCH  27  28
ATOM     28  C40 UNK     0       2.800  -1.288  -0.753  0.00  0.00    +0.000 C 
ATOM     29  O12 UNK     0       3.677  -1.393   0.149  0.00  0.00    +0.000 OA
BRANCH  28  30
ATOM     30  C42 UNK     0       3.208  -1.438  -2.195  0.00  0.00    +0.000 C 
BRANCH  30  31
ATOM     31  O13 UNK     0       4.227  -2.405  -2.306  0.00  0.00    +0.000 OA
ATOM     32 1H10 UNK     0       3.786  -3.287  -2.228  0.00  0.00    +0.000 HD
ENDBRANCH  30  31
BRANCH  30  33
ATOM     33  C46 UNK     0       3.679  -0.090  -2.777  0.00  0.00    +0.000 C 
BRANCH  33  34
ATOM     34  C50 UNK     0       4.145  -0.243  -4.212  0.00  0.00    +0.000 A 
ATOM     35  C52 UNK     0       5.460  -0.645  -4.530  0.00  0.00    +0.000 A 
ATOM     36  C55 UNK     0       5.842  -0.823  -5.864  0.00  0.00    +0.000 A 
ATOM     37  C57 UNK     0       4.920  -0.619  -6.892  0.00  0.00    +0.000 A 
ATOM     38  C54 UNK     0       3.608  -0.249  -6.588  0.00  0.00    +0.000 A 
ATOM     39  C51 UNK     0       3.219  -0.068  -5.257  0.00  0.00    +0.000 A 
ENDBRANCH  33  34
BRANCH  33  40
ATOM     40  N15 UNK     0       4.730   0.504  -1.938  0.00  0.00    +0.000 N 
ATOM     41 3H10 UNK     0       5.562  -0.082  -1.707  0.00  0.00    +0.000 HD
ATOM     42  C53 UNK     0       4.569   1.766  -1.264  0.00  0.00    +0.000 C 
ATOM     43  O14 UNK     0       3.508   2.434  -1.416  0.00  0.00    +0.000 OA
BRANCH  42  44
ATOM     44  C56 UNK     0       5.615   2.287  -0.355  0.00  0.00    +0.000 A 
ATOM     45  C59 UNK     0       6.972   1.968  -0.548  0.00  0.00    +0.000 A 
ATOM     46  C61 UNK     0       7.947   2.463   0.325  0.00  0.00    +0.000 A 
ATOM     47  C62 UNK     0       7.580   3.285   1.392  0.00  0.00    +0.000 A 
ATOM     48  C60 UNK     0       6.238   3.617   1.589  0.00  0.00    +0.000 A 
ATOM     49  C58 UNK     0       5.261   3.128   0.719  0.00  0.00    +0.000 A 
ENDBRANCH  42  44
ENDBRANCH  33  40
ENDBRANCH  30  33
ENDBRANCH  28  30
ENDBRANCH  27  28
ENDBRANCH  18  27
BRANCH  17  50
ATOM     50  O6  UNK     0      -2.123  -4.303   2.675  0.00  0.00    +0.000 OA
BRANCH  50  51
ATOM     51  C39 UNK     0      -2.832  -5.496   2.473  0.00  0.00    +0.000 C 
ATOM     52  C43 UNK     0      -2.495  -6.687   3.300  0.00  0.00    +0.000 C 
ATOM     53  O11 UNK     0      -3.729  -5.575   1.587  0.00  0.00    +0.000 OA
ENDBRANCH  50  51
ENDBRANCH  17  50
BRANCH   7  54
ATOM     54  O3  UNK     0      -2.068   1.937   1.257  0.00  0.00    +0.000 OA
BRANCH  54  55
ATOM     55  C37 UNK     0      -2.440   3.117   1.912  0.00  0.00    +0.000 C 
ATOM     56  O10 UNK     0      -2.834   3.086   3.111  0.00  0.00    +0.000 OA
BRANCH  55  57
ATOM     57  C41 UNK     0      -2.399   4.400   1.173  0.00  0.00    +0.000 A 
ATOM     58  C45 UNK     0      -1.883   4.449  -0.135  0.00  0.00    +0.000 A 
ATOM     59  C48 UNK     0      -1.881   5.652  -0.847  0.00  0.00    +0.000 A 
ATOM     60  C49 UNK     0      -2.384   6.813  -0.261  0.00  0.00    +0.000 A 
ATOM     61  C47 UNK     0      -2.886   6.778   1.040  0.00  0.00    +0.000 A 
ATOM     62  C44 UNK     0      -2.890   5.580   1.759  0.00  0.00    +0.000 A 
ENDBRANCH  55  57
ENDBRANCH  54  55
ENDBRANCH   7  54
BRANCH   4  63
ATOM     63  O2  UNK     0      -2.025   1.085  -1.249  0.00  0.00    +0.000 OA
BRANCH  63  64
ATOM     64  C36 UNK     0      -0.985   0.480  -1.965  0.00  0.00    +0.000 C 
ATOM     65  O9  UNK     0      -0.906  -0.776  -2.070  0.00  0.00    +0.000 OA
ATOM     66  C38 UNK     0       0.064   1.344  -2.572  0.00  0.00    +0.000 C 
ENDBRANCH  63  64
ENDBRANCH   4  63
TORSDOF 17
