REMARK  Name = C:\Users\Maximilian\Desktop\Conformers\converted_pdb\conformers_pdb\Paclitaxel_conf_47.pdb
REMARK  23 active torsions:
REMARK  status: ('A' for Active; 'I' for Inactive)
REMARK    1  A    between atoms: C17_4  and  O2_61
REMARK    2  A    between atoms: C18_5  and  C29_16
REMARK    3  A    between atoms: C20_7  and  O3_52
REMARK    4  A    between atoms: C21_8  and  O4_46
REMARK    5  A    between atoms: C22_9  and  O5_65
REMARK    6  A    between atoms: C24_11  and  C33_20
REMARK    7  A    between atoms: C24_11  and  C34_21
REMARK    8  A    between atoms: C30_17  and  O6_48
REMARK    9  A    between atoms: C31_18  and  O8_23
REMARK   10  A    between atoms: C32_19  and  C35_22
REMARK   11  A    between atoms: O8_23  and  C40_24
REMARK   12  A    between atoms: C40_24  and  C42_26
REMARK   13  A    between atoms: C42_26  and  O13_27
REMARK   14  A    between atoms: C42_26  and  C46_29
REMARK   15  A    between atoms: C46_29  and  N15_30
REMARK   16  A    between atoms: C46_29  and  C50_40
REMARK   17  A    between atoms: C53_32  and  C56_34
REMARK   18  A    between atoms: O6_48  and  C39_49
REMARK   19  A    between atoms: C39_49  and  C43_50
REMARK   20  A    between atoms: O3_52  and  C37_53
REMARK   21  A    between atoms: C37_53  and  C41_55
REMARK   22  A    between atoms: O2_61  and  C36_62
REMARK   23  A    between atoms: C36_62  and  C38_64
REMARK                            x       y       z     vdW  Elec       q    Type
REMARK                         _______ _______ _______ _____ _____    ______ ____
ROOT
ATOM      1  O1  UNK     0      -4.559  -1.290  -1.994  0.00  0.00    +0.000 OA
ATOM      2  O7  UNK     0      -2.571  -3.088   3.279  0.00  0.00    +0.000 OA
ATOM      3  C16 UNK     0      -2.364  -0.764   0.492  0.00  0.00    +0.000 C 
ATOM      4  C17 UNK     0      -2.888  -0.471  -0.967  0.00  0.00    +0.000 C 
ATOM      5  C18 UNK     0      -2.722  -2.212   1.052  0.00  0.00    +0.000 C 
ATOM      6  C19 UNK     0      -3.198  -1.661  -1.885  0.00  0.00    +0.000 C 
ATOM      7  C20 UNK     0      -2.566   0.456   1.497  0.00  0.00    +0.000 C 
ATOM      8  C21 UNK     0      -1.262   1.083   2.186  0.00  0.00    +0.000 C 
ATOM      9  C22 UNK     0      -2.288  -3.241  -0.039  0.00  0.00    +0.000 C 
ATOM     10  C23 UNK     0      -3.080  -3.105  -1.350  0.00  0.00    +0.000 C 
ATOM     11  C24 UNK     0      -0.539   0.108   3.185  0.00  0.00    +0.000 C 
ATOM     12  C25 UNK     0      -4.373  -0.182  -1.140  0.00  0.00    +0.000 C 
ATOM     13  C26 UNK     0      -1.954  -2.573   2.353  0.00  0.00    +0.000 C 
ATOM     14  C27 UNK     0      -0.241   1.593   1.096  0.00  0.00    +0.000 C 
ATOM     15  C28 UNK     0       0.052  -1.040   2.341  0.00  0.00    +0.000 C 
ATOM     16  C29 UNK     0      -4.253  -2.349   1.343  0.00  0.00    +0.000 C 
ATOM     17  C30 UNK     0      -0.439  -2.475   2.503  0.00  0.00    +0.000 C 
ATOM     18  C31 UNK     0       1.024   0.718   0.827  0.00  0.00    +0.000 C 
ATOM     19  C32 UNK     0       0.901  -0.720   1.315  0.00  0.00    +0.000 C 
ATOM     20  C33 UNK     0      -1.494  -0.337   4.342  0.00  0.00    +0.000 C 
ATOM     21  C34 UNK     0       0.625   0.825   3.949  0.00  0.00    +0.000 C 
ATOM     22  C35 UNK     0       1.717  -1.778   0.601  0.00  0.00    +0.000 C 
ENDROOT
BRANCH   8  23
ATOM     23  O4  UNK     0      -1.686   2.192   2.957  0.00  0.00    +0.000 OA
ATOM     24  H84 UNK     0      -1.935   2.938   2.352  0.00  0.00    +0.000 HD
ENDBRANCH   8  23
BRANCH   9  25
ATOM     25  O5  UNK     0      -2.339  -4.567   0.434  0.00  0.00    +0.000 OA
ATOM     26  H85 UNK     0      -3.291  -4.822   0.551  0.00  0.00    +0.000 HD
ENDBRANCH   9  25
BRANCH  18  27
ATOM     27  O8  UNK     0       1.319   0.729  -0.573  0.00  0.00    +0.000 OA
BRANCH  27  28
ATOM     28  C40 UNK     0       1.850   1.841  -1.239  0.00  0.00    +0.000 C 
ATOM     29  O12 UNK     0       1.889   2.965  -0.672  0.00  0.00    +0.000 OA
BRANCH  28  30
ATOM     30  C42 UNK     0       2.404   1.694  -2.632  0.00  0.00    +0.000 C 
BRANCH  30  31
ATOM     31  O13 UNK     0       1.837   0.583  -3.289  0.00  0.00    +0.000 OA
ATOM     32 1H10 UNK     0       2.090  -0.234  -2.785  0.00  0.00    +0.000 HD
ENDBRANCH  30  31
BRANCH  30  33
ATOM     33  C46 UNK     0       3.960   1.635  -2.618  0.00  0.00    +0.000 C 
BRANCH  33  34
ATOM     34  C50 UNK     0       4.630   1.750  -3.985  0.00  0.00    +0.000 A 
ATOM     35  C52 UNK     0       3.917   1.875  -5.199  0.00  0.00    +0.000 A 
ATOM     36  C55 UNK     0       4.599   2.002  -6.413  0.00  0.00    +0.000 A 
ATOM     37  C57 UNK     0       5.995   2.015  -6.438  0.00  0.00    +0.000 A 
ATOM     38  C54 UNK     0       6.714   1.889  -5.249  0.00  0.00    +0.000 A 
ATOM     39  C51 UNK     0       6.040   1.771  -4.031  0.00  0.00    +0.000 A 
ENDBRANCH  33  34
BRANCH  33  40
ATOM     40  N15 UNK     0       4.428   0.414  -1.944  0.00  0.00    +0.000 N 
ATOM     41 3H10 UNK     0       4.545  -0.439  -2.535  0.00  0.00    +0.000 HD
ATOM     42  C53 UNK     0       4.794   0.382  -0.552  0.00  0.00    +0.000 C 
ATOM     43  O14 UNK     0       4.643   1.420   0.148  0.00  0.00    +0.000 OA
BRANCH  42  44
ATOM     44  C56 UNK     0       5.358  -0.839   0.086  0.00  0.00    +0.000 A 
ATOM     45  C59 UNK     0       6.052  -0.727   1.306  0.00  0.00    +0.000 A 
ATOM     46  C61 UNK     0       6.587  -1.858   1.929  0.00  0.00    +0.000 A 
ATOM     47  C62 UNK     0       6.433  -3.116   1.348  0.00  0.00    +0.000 A 
ATOM     48  C60 UNK     0       5.736  -3.247   0.146  0.00  0.00    +0.000 A 
ATOM     49  C58 UNK     0       5.200  -2.119  -0.484  0.00  0.00    +0.000 A 
ENDBRANCH  42  44
ENDBRANCH  33  40
ENDBRANCH  30  33
ENDBRANCH  28  30
ENDBRANCH  27  28
ENDBRANCH  18  27
BRANCH  17  50
ATOM     50  O6  UNK     0       0.005  -2.955   3.775  0.00  0.00    +0.000 OA
BRANCH  50  51
ATOM     51  C39 UNK     0      -0.017  -4.298   4.160  0.00  0.00    +0.000 C 
ATOM     52  C43 UNK     0       0.492  -4.680   5.509  0.00  0.00    +0.000 C 
ATOM     53  O11 UNK     0      -0.427  -5.189   3.369  0.00  0.00    +0.000 OA
ENDBRANCH  50  51
ENDBRANCH  17  50
BRANCH   7  54
ATOM     54  O3  UNK     0      -3.257   1.516   0.822  0.00  0.00    +0.000 OA
BRANCH  54  55
ATOM     55  C37 UNK     0      -4.365   2.210   1.333  0.00  0.00    +0.000 C 
ATOM     56  O10 UNK     0      -4.812   1.945   2.484  0.00  0.00    +0.000 OA
BRANCH  55  57
ATOM     57  C41 UNK     0      -5.016   3.249   0.508  0.00  0.00    +0.000 A 
ATOM     58  C45 UNK     0      -6.180   3.901   0.959  0.00  0.00    +0.000 A 
ATOM     59  C48 UNK     0      -6.800   4.868   0.162  0.00  0.00    +0.000 A 
ATOM     60  C49 UNK     0      -6.269   5.197  -1.087  0.00  0.00    +0.000 A 
ATOM     61  C47 UNK     0      -5.111   4.562  -1.541  0.00  0.00    +0.000 A 
ATOM     62  C44 UNK     0      -4.482   3.597  -0.745  0.00  0.00    +0.000 A 
ENDBRANCH  55  57
ENDBRANCH  54  55
ENDBRANCH   7  54
BRANCH   4  63
ATOM     63  O2  UNK     0      -2.055   0.525  -1.597  0.00  0.00    +0.000 OA
BRANCH  63  64
ATOM     64  C36 UNK     0      -2.221   1.128  -2.858  0.00  0.00    +0.000 C 
ATOM     65  O9  UNK     0      -3.094   0.729  -3.675  0.00  0.00    +0.000 OA
ATOM     66  C38 UNK     0      -1.349   2.278  -3.234  0.00  0.00    +0.000 C 
ENDBRANCH  63  64
ENDBRANCH   4  63
TORSDOF 17
