REMARK  Name = C:\Users\Maximilian\Desktop\Conformers\converted_pdb\conformers_pdb\Paclitaxel_conf_63.pdb
REMARK  23 active torsions:
REMARK  status: ('A' for Active; 'I' for Inactive)
REMARK    1  A    between atoms: C17_4  and  O2_61
REMARK    2  A    between atoms: C18_5  and  C29_16
REMARK    3  A    between atoms: C20_7  and  O3_52
REMARK    4  A    between atoms: C21_8  and  O4_46
REMARK    5  A    between atoms: C22_9  and  O5_65
REMARK    6  A    between atoms: C24_11  and  C33_20
REMARK    7  A    between atoms: C24_11  and  C34_21
REMARK    8  A    between atoms: C30_17  and  O6_48
REMARK    9  A    between atoms: C31_18  and  O8_23
REMARK   10  A    between atoms: C32_19  and  C35_22
REMARK   11  A    between atoms: O8_23  and  C40_24
REMARK   12  A    between atoms: C40_24  and  C42_26
REMARK   13  A    between atoms: C42_26  and  O13_27
REMARK   14  A    between atoms: C42_26  and  C46_29
REMARK   15  A    between atoms: C46_29  and  N15_30
REMARK   16  A    between atoms: C46_29  and  C50_40
REMARK   17  A    between atoms: C53_32  and  C56_34
REMARK   18  A    between atoms: O6_48  and  C39_49
REMARK   19  A    between atoms: C39_49  and  C43_50
REMARK   20  A    between atoms: O3_52  and  C37_53
REMARK   21  A    between atoms: C37_53  and  C41_55
REMARK   22  A    between atoms: O2_61  and  C36_62
REMARK   23  A    between atoms: C36_62  and  C38_64
REMARK                            x       y       z     vdW  Elec       q    Type
REMARK                         _______ _______ _______ _____ _____    ______ ____
ROOT
ATOM      1  O1  UNK     0      -3.321  -3.704  -1.350  0.00  0.00    +0.000 OA
ATOM      2  O7  UNK     0      -4.167  -1.029   3.861  0.00  0.00    +0.000 OA
ATOM      3  C16 UNK     0      -2.330  -1.251   0.723  0.00  0.00    +0.000 C 
ATOM      4  C17 UNK     0      -2.113  -2.145  -0.562  0.00  0.00    +0.000 C 
ATOM      5  C18 UNK     0      -3.188  -1.941   1.872  0.00  0.00    +0.000 C 
ATOM      6  C19 UNK     0      -2.247  -3.666  -0.430  0.00  0.00    +0.000 C 
ATOM      7  C20 UNK     0      -2.682   0.270   0.391  0.00  0.00    +0.000 C 
ATOM      8  C21 UNK     0      -1.694   1.406   0.937  0.00  0.00    +0.000 C 
ATOM      9  C22 UNK     0      -2.564  -3.353   2.123  0.00  0.00    +0.000 C 
ATOM     10  C23 UNK     0      -2.676  -4.293   0.914  0.00  0.00    +0.000 C 
ATOM     11  C24 UNK     0      -1.686   1.541   2.505  0.00  0.00    +0.000 C 
ATOM     12  C25 UNK     0      -3.283  -2.303  -1.522  0.00  0.00    +0.000 C 
ATOM     13  C26 UNK     0      -3.131  -1.174   3.221  0.00  0.00    +0.000 C 
ATOM     14  C27 UNK     0      -0.225   1.166   0.406  0.00  0.00    +0.000 C 
ATOM     15  C28 UNK     0      -1.039   0.252   3.053  0.00  0.00    +0.000 C 
ATOM     16  C29 UNK     0      -4.692  -2.077   1.452  0.00  0.00    +0.000 C 
ATOM     17  C30 UNK     0      -1.836  -0.738   3.901  0.00  0.00    +0.000 C 
ATOM     18  C31 UNK     0       0.835   0.677   1.439  0.00  0.00    +0.000 C 
ATOM     19  C32 UNK     0       0.224  -0.067   2.624  0.00  0.00    +0.000 C 
ATOM     20  C33 UNK     0      -3.115   1.855   3.062  0.00  0.00    +0.000 C 
ATOM     21  C34 UNK     0      -0.834   2.776   2.970  0.00  0.00    +0.000 C 
ATOM     22  C35 UNK     0       1.032  -1.165   3.287  0.00  0.00    +0.000 C 
ENDROOT
BRANCH   8  23
ATOM     23  O4  UNK     0      -2.158   2.646   0.439  0.00  0.00    +0.000 OA
ATOM     24  H84 UNK     0      -1.949   2.711  -0.530  0.00  0.00    +0.000 HD
ENDBRANCH   8  23
BRANCH   9  25
ATOM     25  O5  UNK     0      -3.091  -3.972   3.273  0.00  0.00    +0.000 OA
ATOM     26  H85 UNK     0      -4.047  -4.175   3.104  0.00  0.00    +0.000 HD
ENDBRANCH   9  25
BRANCH  18  27
ATOM     27  O8  UNK     0       1.773  -0.145   0.735  0.00  0.00    +0.000 OA
BRANCH  27  28
ATOM     28  C40 UNK     0       3.165  -0.069   0.898  0.00  0.00    +0.000 C 
ATOM     29  O12 UNK     0       3.669   0.671   1.788  0.00  0.00    +0.000 OA
BRANCH  28  30
ATOM     30  C42 UNK     0       4.053  -0.941   0.046  0.00  0.00    +0.000 C 
BRANCH  30  31
ATOM     31  O13 UNK     0       4.657  -1.948   0.819  0.00  0.00    +0.000 OA
ATOM     32 1H10 UNK     0       5.135  -1.514   1.572  0.00  0.00    +0.000 HD
ENDBRANCH  30  31
BRANCH  30  33
ATOM     33  C46 UNK     0       5.107  -0.166  -0.793  0.00  0.00    +0.000 C 
BRANCH  33  34
ATOM     34  C50 UNK     0       6.109   0.610   0.049  0.00  0.00    +0.000 A 
ATOM     35  C52 UNK     0       5.909   1.968   0.374  0.00  0.00    +0.000 A 
ATOM     36  C55 UNK     0       6.827   2.645   1.184  0.00  0.00    +0.000 A 
ATOM     37  C57 UNK     0       7.949   1.979   1.680  0.00  0.00    +0.000 A 
ATOM     38  C54 UNK     0       8.161   0.635   1.361  0.00  0.00    +0.000 A 
ATOM     39  C51 UNK     0       7.247  -0.045   0.550  0.00  0.00    +0.000 A 
ENDBRANCH  33  34
BRANCH  33  40
ATOM     40  N15 UNK     0       4.445   0.707  -1.772  0.00  0.00    +0.000 N 
ATOM     41 3H10 UNK     0       3.611   1.256  -1.465  0.00  0.00    +0.000 HD
ATOM     42  C53 UNK     0       5.005   0.957  -3.073  0.00  0.00    +0.000 C 
ATOM     43  O14 UNK     0       6.202   0.632  -3.303  0.00  0.00    +0.000 OA
BRANCH  42  44
ATOM     44  C56 UNK     0       4.205   1.591  -4.155  0.00  0.00    +0.000 A 
ATOM     45  C59 UNK     0       2.802   1.696  -4.069  0.00  0.00    +0.000 A 
ATOM     46  C61 UNK     0       2.065   2.256  -5.116  0.00  0.00    +0.000 A 
ATOM     47  C62 UNK     0       2.715   2.721  -6.261  0.00  0.00    +0.000 A 
ATOM     48  C60 UNK     0       4.104   2.624  -6.361  0.00  0.00    +0.000 A 
ATOM     49  C58 UNK     0       4.846   2.059  -5.320  0.00  0.00    +0.000 A 
ENDBRANCH  42  44
ENDBRANCH  33  40
ENDBRANCH  30  33
ENDBRANCH  28  30
ENDBRANCH  27  28
ENDBRANCH  18  27
BRANCH  17  50
ATOM     50  O6  UNK     0      -2.084  -0.137   5.175  0.00  0.00    +0.000 OA
BRANCH  50  51
ATOM     51  C39 UNK     0      -2.498  -0.846   6.306  0.00  0.00    +0.000 C 
ATOM     52  C43 UNK     0      -2.785  -0.109   7.570  0.00  0.00    +0.000 C 
ATOM     53  O11 UNK     0      -2.600  -2.103   6.279  0.00  0.00    +0.000 OA
ENDBRANCH  50  51
ENDBRANCH  17  50
BRANCH   7  54
ATOM     54  O3  UNK     0      -2.793   0.425  -1.032  0.00  0.00    +0.000 OA
BRANCH  54  55
ATOM     55  C37 UNK     0      -3.827   1.113  -1.686  0.00  0.00    +0.000 C 
ATOM     56  O10 UNK     0      -4.713   1.719  -1.020  0.00  0.00    +0.000 OA
BRANCH  55  57
ATOM     57  C41 UNK     0      -3.870   1.122  -3.163  0.00  0.00    +0.000 A 
ATOM     58  C45 UNK     0      -2.793   0.603  -3.905  0.00  0.00    +0.000 A 
ATOM     59  C48 UNK     0      -2.842   0.583  -5.301  0.00  0.00    +0.000 A 
ATOM     60  C49 UNK     0      -3.965   1.079  -5.970  0.00  0.00    +0.000 A 
ATOM     61  C47 UNK     0      -5.037   1.601  -5.242  0.00  0.00    +0.000 A 
ATOM     62  C44 UNK     0      -4.992   1.627  -3.845  0.00  0.00    +0.000 A 
ENDBRANCH  55  57
ENDBRANCH  54  55
ENDBRANCH   7  54
BRANCH   4  63
ATOM     63  O2  UNK     0      -0.897  -1.751  -1.229  0.00  0.00    +0.000 OA
BRANCH  63  64
ATOM     64  C36 UNK     0      -0.370  -2.229  -2.444  0.00  0.00    +0.000 C 
ATOM     65  O9  UNK     0      -0.882  -3.208  -3.050  0.00  0.00    +0.000 OA
ATOM     66  C38 UNK     0       0.850  -1.578  -2.998  0.00  0.00    +0.000 C 
ENDBRANCH  63  64
ENDBRANCH   4  63
TORSDOF 17
