REMARK  Name = C:\Users\Maximilian\Desktop\Conformers\converted_pdb\conformers_pdb\Paclitaxel_conf_57.pdb
REMARK  23 active torsions:
REMARK  status: ('A' for Active; 'I' for Inactive)
REMARK    1  A    between atoms: C17_4  and  O2_61
REMARK    2  A    between atoms: C18_5  and  C29_16
REMARK    3  A    between atoms: C20_7  and  O3_52
REMARK    4  A    between atoms: C21_8  and  O4_46
REMARK    5  A    between atoms: C22_9  and  O5_65
REMARK    6  A    between atoms: C24_11  and  C33_20
REMARK    7  A    between atoms: C24_11  and  C34_21
REMARK    8  A    between atoms: C30_17  and  O6_48
REMARK    9  A    between atoms: C31_18  and  O8_23
REMARK   10  A    between atoms: C32_19  and  C35_22
REMARK   11  A    between atoms: O8_23  and  C40_24
REMARK   12  A    between atoms: C40_24  and  C42_26
REMARK   13  A    between atoms: C42_26  and  O13_27
REMARK   14  A    between atoms: C42_26  and  C46_29
REMARK   15  A    between atoms: C46_29  and  N15_30
REMARK   16  A    between atoms: C46_29  and  C50_40
REMARK   17  A    between atoms: C53_32  and  C56_34
REMARK   18  A    between atoms: O6_48  and  C39_49
REMARK   19  A    between atoms: C39_49  and  C43_50
REMARK   20  A    between atoms: O3_52  and  C37_53
REMARK   21  A    between atoms: C37_53  and  C41_55
REMARK   22  A    between atoms: O2_61  and  C36_62
REMARK   23  A    between atoms: C36_62  and  C38_64
REMARK                            x       y       z     vdW  Elec       q    Type
REMARK                         _______ _______ _______ _____ _____    ______ ____
ROOT
ATOM      1  O1  UNK     0      -3.805   0.833  -2.706  0.00  0.00    +0.000 OA
ATOM      2  O7  UNK     0      -1.629  -4.472  -0.886  0.00  0.00    +0.000 OA
ATOM      3  C16 UNK     0      -2.108  -0.979  -0.279  0.00  0.00    +0.000 C 
ATOM      4  C17 UNK     0      -2.254   0.137  -1.416  0.00  0.00    +0.000 C 
ATOM      5  C18 UNK     0      -2.835  -2.388  -0.621  0.00  0.00    +0.000 C 
ATOM      6  C19 UNK     0      -2.835  -0.182  -2.798  0.00  0.00    +0.000 C 
ATOM      7  C20 UNK     0      -2.313  -0.292   1.179  0.00  0.00    +0.000 C 
ATOM      8  C21 UNK     0      -1.237  -0.530   2.342  0.00  0.00    +0.000 C 
ATOM      9  C22 UNK     0      -2.880  -2.603  -2.191  0.00  0.00    +0.000 C 
ATOM     10  C23 UNK     0      -3.576  -1.497  -2.947  0.00  0.00    +0.000 C 
ATOM     11  C24 UNK     0      -1.317  -1.935   3.033  0.00  0.00    +0.000 C 
ATOM     12  C25 UNK     0      -3.464   1.078  -1.368  0.00  0.00    +0.000 C 
ATOM     13  C26 UNK     0      -2.066  -3.651  -0.085  0.00  0.00    +0.000 C 
ATOM     14  C27 UNK     0       0.211  -0.248   1.800  0.00  0.00    +0.000 C 
ATOM     15  C28 UNK     0      -0.873  -2.958   1.974  0.00  0.00    +0.000 C 
ATOM     16  C29 UNK     0      -4.293  -2.416  -0.091  0.00  0.00    +0.000 C 
ATOM     17  C30 UNK     0      -1.792  -4.006   1.360  0.00  0.00    +0.000 C 
ATOM     18  C31 UNK     0       1.106  -1.477   1.483  0.00  0.00    +0.000 C 
ATOM     19  C32 UNK     0       0.366  -2.797   1.408  0.00  0.00    +0.000 C 
ATOM     20  C33 UNK     0      -2.710  -2.187   3.689  0.00  0.00    +0.000 C 
ATOM     21  C34 UNK     0      -0.347  -2.025   4.255  0.00  0.00    +0.000 C 
ATOM     22  C35 UNK     0       1.107  -3.955   0.762  0.00  0.00    +0.000 C 
ENDROOT
BRANCH   8  23
ATOM     23  O4  UNK     0      -1.444   0.446   3.349  0.00  0.00    +0.000 OA
ATOM     24  H84 UNK     0      -2.399   0.445   3.614  0.00  0.00    +0.000 HD
ENDBRANCH   8  23
BRANCH   9  25
ATOM     25  O5  UNK     0      -3.529  -3.815  -2.512  0.00  0.00    +0.000 OA
ATOM     26  H85 UNK     0      -3.190  -4.104  -3.404  0.00  0.00    +0.000 HD
ENDBRANCH   9  25
BRANCH  18  27
ATOM     27  O8  UNK     0       1.772  -1.261   0.236  0.00  0.00    +0.000 OA
BRANCH  27  28
ATOM     28  C40 UNK     0       3.098  -0.830   0.137  0.00  0.00    +0.000 C 
ATOM     29  O12 UNK     0       3.692  -0.341   1.138  0.00  0.00    +0.000 OA
BRANCH  28  30
ATOM     30  C42 UNK     0       3.832  -0.977  -1.166  0.00  0.00    +0.000 C 
BRANCH  30  31
ATOM     31  O13 UNK     0       5.130  -1.472  -0.939  0.00  0.00    +0.000 OA
ATOM     32 1H10 UNK     0       5.036  -2.435  -0.706  0.00  0.00    +0.000 HD
ENDBRANCH  30  31
BRANCH  30  33
ATOM     33  C46 UNK     0       3.885   0.361  -1.935  0.00  0.00    +0.000 C 
BRANCH  33  34
ATOM     34  C50 UNK     0       4.476   0.142  -3.312  0.00  0.00    +0.000 A 
ATOM     35  C52 UNK     0       5.871   0.141  -3.525  0.00  0.00    +0.000 A 
ATOM     36  C55 UNK     0       6.392  -0.158  -4.790  0.00  0.00    +0.000 A 
ATOM     37  C57 UNK     0       5.532  -0.483  -5.841  0.00  0.00    +0.000 A 
ATOM     38  C54 UNK     0       4.151  -0.499  -5.636  0.00  0.00    +0.000 A 
ATOM     39  C51 UNK     0       3.624  -0.192  -4.379  0.00  0.00    +0.000 A 
ENDBRANCH  33  34
BRANCH  33  40
ATOM     40  N15 UNK     0       4.647   1.373  -1.192  0.00  0.00    +0.000 N 
ATOM     41 3H10 UNK     0       5.342   1.052  -0.475  0.00  0.00    +0.000 HD
ATOM     42  C53 UNK     0       4.356   2.774  -1.308  0.00  0.00    +0.000 C 
ATOM     43  O14 UNK     0       3.687   3.194  -2.288  0.00  0.00    +0.000 OA
BRANCH  42  44
ATOM     44  C56 UNK     0       4.775   3.724  -0.259  0.00  0.00    +0.000 A 
ATOM     45  C59 UNK     0       3.933   4.797   0.086  0.00  0.00    +0.000 A 
ATOM     46  C61 UNK     0       4.293   5.685   1.103  0.00  0.00    +0.000 A 
ATOM     47  C62 UNK     0       5.513   5.524   1.767  0.00  0.00    +0.000 A 
ATOM     48  C60 UNK     0       6.365   4.466   1.423  0.00  0.00    +0.000 A 
ATOM     49  C58 UNK     0       6.000   3.570   0.412  0.00  0.00    +0.000 A 
ENDBRANCH  42  44
ENDBRANCH  33  40
ENDBRANCH  30  33
ENDBRANCH  28  30
ENDBRANCH  27  28
ENDBRANCH  18  27
BRANCH  17  50
ATOM     50  O6  UNK     0      -3.005  -4.258   2.059  0.00  0.00    +0.000 OA
BRANCH  50  51
ATOM     51  C39 UNK     0      -3.801  -5.387   1.846  0.00  0.00    +0.000 C 
ATOM     52  C43 UNK     0      -5.023  -5.580   2.678  0.00  0.00    +0.000 C 
ATOM     53  O11 UNK     0      -3.482  -6.252   0.988  0.00  0.00    +0.000 OA
ENDBRANCH  50  51
ENDBRANCH  17  50
BRANCH   7  54
ATOM     54  O3  UNK     0      -2.334   1.138   1.029  0.00  0.00    +0.000 OA
BRANCH  54  55
ATOM     55  C37 UNK     0      -3.259   2.018   1.614  0.00  0.00    +0.000 C 
ATOM     56  O10 UNK     0      -4.269   1.572   2.223  0.00  0.00    +0.000 OA
BRANCH  55  57
ATOM     57  C41 UNK     0      -3.048   3.476   1.483  0.00  0.00    +0.000 A 
ATOM     58  C45 UNK     0      -4.008   4.397   1.951  0.00  0.00    +0.000 A 
ATOM     59  C48 UNK     0      -3.795   5.771   1.804  0.00  0.00    +0.000 A 
ATOM     60  C49 UNK     0      -2.616   6.240   1.213  0.00  0.00    +0.000 A 
ATOM     61  C47 UNK     0      -1.662   5.336   0.744  0.00  0.00    +0.000 A 
ATOM     62  C44 UNK     0      -1.869   3.961   0.888  0.00  0.00    +0.000 A 
ENDBRANCH  55  57
ENDBRANCH  54  55
ENDBRANCH   7  54
BRANCH   4  63
ATOM     63  O2  UNK     0      -1.010   0.860  -1.507  0.00  0.00    +0.000 OA
BRANCH  63  64
ATOM     64  C36 UNK     0      -0.720   1.992  -2.285  0.00  0.00    +0.000 C 
ATOM     65  O9  UNK     0      -1.554   2.474  -3.095  0.00  0.00    +0.000 OA
ATOM     66  C38 UNK     0       0.615   2.621  -2.178  0.00  0.00    +0.000 C 
ENDBRANCH  63  64
ENDBRANCH   4  63
TORSDOF 17
