REMARK  Name = C:\Users\Maximilian\Desktop\Conformers\converted_pdb\conformers_pdb\Paclitaxel_conf_37.pdb
REMARK  23 active torsions:
REMARK  status: ('A' for Active; 'I' for Inactive)
REMARK    1  A    between atoms: C17_4  and  O2_61
REMARK    2  A    between atoms: C18_5  and  C29_16
REMARK    3  A    between atoms: C20_7  and  O3_52
REMARK    4  A    between atoms: C21_8  and  O4_46
REMARK    5  A    between atoms: C22_9  and  O5_65
REMARK    6  A    between atoms: C24_11  and  C33_20
REMARK    7  A    between atoms: C24_11  and  C34_21
REMARK    8  A    between atoms: C30_17  and  O6_48
REMARK    9  A    between atoms: C31_18  and  O8_23
REMARK   10  A    between atoms: C32_19  and  C35_22
REMARK   11  A    between atoms: O8_23  and  C40_24
REMARK   12  A    between atoms: C40_24  and  C42_26
REMARK   13  A    between atoms: C42_26  and  O13_27
REMARK   14  A    between atoms: C42_26  and  C46_29
REMARK   15  A    between atoms: C46_29  and  N15_30
REMARK   16  A    between atoms: C46_29  and  C50_40
REMARK   17  A    between atoms: C53_32  and  C56_34
REMARK   18  A    between atoms: O6_48  and  C39_49
REMARK   19  A    between atoms: C39_49  and  C43_50
REMARK   20  A    between atoms: O3_52  and  C37_53
REMARK   21  A    between atoms: C37_53  and  C41_55
REMARK   22  A    between atoms: O2_61  and  C36_62
REMARK   23  A    between atoms: C36_62  and  C38_64
REMARK                            x       y       z     vdW  Elec       q    Type
REMARK                         _______ _______ _______ _____ _____    ______ ____
ROOT
ATOM      1  O1  UNK     0      -4.405  -2.388   1.850  0.00  0.00    +0.000 OA
ATOM      2  O7  UNK     0      -2.160   2.755   3.793  0.00  0.00    +0.000 OA
ATOM      3  C16 UNK     0      -2.349   0.187   1.198  0.00  0.00    +0.000 C 
ATOM      4  C17 UNK     0      -2.880  -1.266   0.885  0.00  0.00    +0.000 C 
ATOM      5  C18 UNK     0      -2.477   0.629   2.724  0.00  0.00    +0.000 C 
ATOM      6  C19 UNK     0      -3.006  -2.275   2.032  0.00  0.00    +0.000 C 
ATOM      7  C20 UNK     0      -2.775   1.266   0.102  0.00  0.00    +0.000 C 
ATOM      8  C21 UNK     0      -1.615   2.056  -0.665  0.00  0.00    +0.000 C 
ATOM      9  C22 UNK     0      -1.882  -0.537   3.580  0.00  0.00    +0.000 C 
ATOM     10  C23 UNK     0      -2.689  -1.839   3.477  0.00  0.00    +0.000 C 
ATOM     11  C24 UNK     0      -0.770   3.005   0.256  0.00  0.00    +0.000 C 
ATOM     12  C25 UNK     0      -4.388  -1.456   0.793  0.00  0.00    +0.000 C 
ATOM     13  C26 UNK     0      -1.657   1.903   3.068  0.00  0.00    +0.000 C 
ATOM     14  C27 UNK     0      -0.664   1.045  -1.425  0.00  0.00    +0.000 C 
ATOM     15  C28 UNK     0       0.038   2.088   1.197  0.00  0.00    +0.000 C 
ATOM     16  C29 UNK     0      -3.967   0.895   3.122  0.00  0.00    +0.000 C 
ATOM     17  C30 UNK     0      -0.190   2.093   2.705  0.00  0.00    +0.000 C 
ATOM     18  C31 UNK     0       0.778   0.864  -0.855  0.00  0.00    +0.000 C 
ATOM     19  C32 UNK     0       0.870   1.160   0.634  0.00  0.00    +0.000 C 
ATOM     20  C33 UNK     0      -1.673   4.061   0.970  0.00  0.00    +0.000 C 
ATOM     21  C34 UNK     0       0.233   3.875  -0.583  0.00  0.00    +0.000 C 
ATOM     22  C35 UNK     0       1.882   0.389   1.459  0.00  0.00    +0.000 C 
ENDROOT
BRANCH   8  23
ATOM     23  O4  UNK     0      -2.234   2.899  -1.618  0.00  0.00    +0.000 OA
ATOM     24  H84 UNK     0      -2.589   2.348  -2.362  0.00  0.00    +0.000 HD
ENDBRANCH   8  23
BRANCH   9  25
ATOM     25  O5  UNK     0      -1.716  -0.166   4.930  0.00  0.00    +0.000 OA
ATOM     26  H85 UNK     0      -2.613  -0.083   5.347  0.00  0.00    +0.000 HD
ENDBRANCH   9  25
BRANCH  18  27
ATOM     27  O8  UNK     0       1.239  -0.461  -1.124  0.00  0.00    +0.000 OA
BRANCH  27  28
ATOM     28  C40 UNK     0       1.627  -0.894  -2.402  0.00  0.00    +0.000 C 
ATOM     29  O12 UNK     0       1.312  -0.233  -3.428  0.00  0.00    +0.000 OA
BRANCH  28  30
ATOM     30  C42 UNK     0       2.466  -2.134  -2.544  0.00  0.00    +0.000 C 
BRANCH  30  31
ATOM     31  O13 UNK     0       2.168  -3.027  -1.501  0.00  0.00    +0.000 OA
ATOM     32 1H10 UNK     0       1.372  -3.545  -1.782  0.00  0.00    +0.000 HD
ENDBRANCH  30  31
BRANCH  30  33
ATOM     33  C46 UNK     0       3.968  -1.762  -2.531  0.00  0.00    +0.000 C 
BRANCH  33  34
ATOM     34  C50 UNK     0       4.839  -2.932  -2.960  0.00  0.00    +0.000 A 
ATOM     35  C52 UNK     0       5.507  -2.891  -4.198  0.00  0.00    +0.000 A 
ATOM     36  C55 UNK     0       6.305  -3.963  -4.608  0.00  0.00    +0.000 A 
ATOM     37  C57 UNK     0       6.425  -5.095  -3.803  0.00  0.00    +0.000 A 
ATOM     38  C54 UNK     0       5.753  -5.157  -2.580  0.00  0.00    +0.000 A 
ATOM     39  C51 UNK     0       4.969  -4.081  -2.154  0.00  0.00    +0.000 A 
ENDBRANCH  33  34
BRANCH  33  40
ATOM     40  N15 UNK     0       4.375  -1.282  -1.205  0.00  0.00    +0.000 N 
ATOM     41 3H10 UNK     0       4.263  -1.927  -0.395  0.00  0.00    +0.000 HD
ATOM     42  C53 UNK     0       4.847   0.053  -0.954  0.00  0.00    +0.000 C 
ATOM     43  O14 UNK     0       4.748   0.934  -1.850  0.00  0.00    +0.000 OA
BRANCH  42  44
ATOM     44  C56 UNK     0       5.401   0.425   0.373  0.00  0.00    +0.000 A 
ATOM     45  C59 UNK     0       6.034  -0.536   1.181  0.00  0.00    +0.000 A 
ATOM     46  C61 UNK     0       6.537  -0.182   2.436  0.00  0.00    +0.000 A 
ATOM     47  C62 UNK     0       6.417   1.131   2.897  0.00  0.00    +0.000 A 
ATOM     48  C60 UNK     0       5.821   2.099   2.089  0.00  0.00    +0.000 A 
ATOM     49  C58 UNK     0       5.309   1.752   0.835  0.00  0.00    +0.000 A 
ENDBRANCH  42  44
ENDBRANCH  33  40
ENDBRANCH  30  33
ENDBRANCH  28  30
ENDBRANCH  27  28
ENDBRANCH  18  27
BRANCH  17  50
ATOM     50  O6  UNK     0       0.338   3.315   3.229  0.00  0.00    +0.000 OA
BRANCH  50  51
ATOM     51  C39 UNK     0       0.623   3.528   4.584  0.00  0.00    +0.000 C 
ATOM     52  C43 UNK     0       1.232   4.822   5.011  0.00  0.00    +0.000 C 
ATOM     53  O11 UNK     0       0.423   2.622   5.438  0.00  0.00    +0.000 OA
ENDBRANCH  50  51
ENDBRANCH  17  50
BRANCH   7  54
ATOM     54  O3  UNK     0      -3.588   0.629  -0.892  0.00  0.00    +0.000 OA
BRANCH  54  55
ATOM     55  C37 UNK     0      -4.806   1.120  -1.386  0.00  0.00    +0.000 C 
ATOM     56  O10 UNK     0      -5.312   2.172  -0.913  0.00  0.00    +0.000 OA
BRANCH  55  57
ATOM     57  C41 UNK     0      -5.483   0.400  -2.486  0.00  0.00    +0.000 A 
ATOM     58  C45 UNK     0      -4.900  -0.752  -3.043  0.00  0.00    +0.000 A 
ATOM     59  C48 UNK     0      -5.538  -1.437  -4.080  0.00  0.00    +0.000 A 
ATOM     60  C49 UNK     0      -6.752  -0.969  -4.588  0.00  0.00    +0.000 A 
ATOM     61  C47 UNK     0      -7.340   0.178  -4.047  0.00  0.00    +0.000 A 
ATOM     62  C44 UNK     0      -6.713   0.858  -2.998  0.00  0.00    +0.000 A 
ENDBRANCH  55  57
ENDBRANCH  54  55
ENDBRANCH   7  54
BRANCH   4  63
ATOM     63  O2  UNK     0      -2.182  -1.802  -0.259  0.00  0.00    +0.000 OA
BRANCH  63  64
ATOM     64  C36 UNK     0      -2.393  -3.028  -0.913  0.00  0.00    +0.000 C 
ATOM     65  O9  UNK     0      -3.234  -3.869  -0.494  0.00  0.00    +0.000 OA
ATOM     66  C38 UNK     0      -1.601  -3.344  -2.131  0.00  0.00    +0.000 C 
ENDBRANCH  63  64
ENDBRANCH   4  63
TORSDOF 17
