REMARK  Name = C:\Users\Maximilian\Desktop\Conformers\converted_pdb\conformers_pdb\Paclitaxel_conf_30.pdb
REMARK  23 active torsions:
REMARK  status: ('A' for Active; 'I' for Inactive)
REMARK    1  A    between atoms: C17_4  and  O2_61
REMARK    2  A    between atoms: C18_5  and  C29_16
REMARK    3  A    between atoms: C20_7  and  O3_52
REMARK    4  A    between atoms: C21_8  and  O4_46
REMARK    5  A    between atoms: C22_9  and  O5_65
REMARK    6  A    between atoms: C24_11  and  C33_20
REMARK    7  A    between atoms: C24_11  and  C34_21
REMARK    8  A    between atoms: C30_17  and  O6_48
REMARK    9  A    between atoms: C31_18  and  O8_23
REMARK   10  A    between atoms: C32_19  and  C35_22
REMARK   11  A    between atoms: O8_23  and  C40_24
REMARK   12  A    between atoms: C40_24  and  C42_26
REMARK   13  A    between atoms: C42_26  and  O13_27
REMARK   14  A    between atoms: C42_26  and  C46_29
REMARK   15  A    between atoms: C46_29  and  N15_30
REMARK   16  A    between atoms: C46_29  and  C50_40
REMARK   17  A    between atoms: C53_32  and  C56_34
REMARK   18  A    between atoms: O6_48  and  C39_49
REMARK   19  A    between atoms: C39_49  and  C43_50
REMARK   20  A    between atoms: O3_52  and  C37_53
REMARK   21  A    between atoms: C37_53  and  C41_55
REMARK   22  A    between atoms: O2_61  and  C36_62
REMARK   23  A    between atoms: C36_62  and  C38_64
REMARK                            x       y       z     vdW  Elec       q    Type
REMARK                         _______ _______ _______ _____ _____    ______ ____
ROOT
ATOM      1  O1  UNK     0      -5.336  -2.257  -0.976  0.00  0.00    +0.000 OA
ATOM      2  O7  UNK     0       0.138  -2.777   1.137  0.00  0.00    +0.000 OA
ATOM      3  C16 UNK     0      -2.394  -0.937   0.180  0.00  0.00    +0.000 C 
ATOM      4  C17 UNK     0      -3.462  -1.222  -0.971  0.00  0.00    +0.000 C 
ATOM      5  C18 UNK     0      -2.176  -2.181   1.169  0.00  0.00    +0.000 C 
ATOM      6  C19 UNK     0      -4.003  -2.631  -1.258  0.00  0.00    +0.000 C 
ATOM      7  C20 UNK     0      -2.649   0.541   0.788  0.00  0.00    +0.000 C 
ATOM      8  C21 UNK     0      -1.430   1.526   1.138  0.00  0.00    +0.000 C 
ATOM      9  C22 UNK     0      -2.264  -3.525   0.333  0.00  0.00    +0.000 C 
ATOM     10  C23 UNK     0      -3.613  -3.769  -0.324  0.00  0.00    +0.000 C 
ATOM     11  C24 UNK     0      -0.768   1.270   2.542  0.00  0.00    +0.000 C 
ATOM     12  C25 UNK     0      -4.932  -0.960  -0.617  0.00  0.00    +0.000 C 
ATOM     13  C26 UNK     0      -0.740  -2.177   1.761  0.00  0.00    +0.000 C 
ATOM     14  C27 UNK     0      -0.353   1.532  -0.019  0.00  0.00    +0.000 C 
ATOM     15  C28 UNK     0       0.129   0.027   2.432  0.00  0.00    +0.000 C 
ATOM     16  C29 UNK     0      -3.240  -2.253   2.293  0.00  0.00    +0.000 C 
ATOM     17  C30 UNK     0      -0.237  -1.370   2.939  0.00  0.00    +0.000 C 
ATOM     18  C31 UNK     0       1.051   0.936   0.278  0.00  0.00    +0.000 C 
ATOM     19  C32 UNK     0       1.146   0.083   1.526  0.00  0.00    +0.000 C 
ATOM     20  C33 UNK     0      -1.829   1.277   3.690  0.00  0.00    +0.000 C 
ATOM     21  C34 UNK     0       0.155   2.471   2.939  0.00  0.00    +0.000 C 
ATOM     22  C35 UNK     0       2.426  -0.697   1.726  0.00  0.00    +0.000 C 
ENDROOT
BRANCH   8  23
ATOM     23  O4  UNK     0      -1.975   2.839   1.233  0.00  0.00    +0.000 OA
ATOM     24  H84 UNK     0      -2.133   3.211   0.330  0.00  0.00    +0.000 HD
ENDBRANCH   8  23
BRANCH   9  25
ATOM     25  O5  UNK     0      -1.958  -4.633   1.154  0.00  0.00    +0.000 OA
ATOM     26  H85 UNK     0      -1.649  -5.364   0.555  0.00  0.00    +0.000 HD
ENDBRANCH   9  25
BRANCH  18  27
ATOM     27  O8  UNK     0       1.491   0.153  -0.835  0.00  0.00    +0.000 OA
BRANCH  27  28
ATOM     28  C40 UNK     0       1.892   0.726  -2.053  0.00  0.00    +0.000 C 
ATOM     29  O12 UNK     0       1.538   1.900  -2.346  0.00  0.00    +0.000 OA
BRANCH  28  30
ATOM     30  C42 UNK     0       2.802  -0.022  -2.991  0.00  0.00    +0.000 C 
BRANCH  30  31
ATOM     31  O13 UNK     0       2.563  -1.410  -2.970  0.00  0.00    +0.000 OA
ATOM     32 1H10 UNK     0       2.688  -1.742  -2.049  0.00  0.00    +0.000 HD
ENDBRANCH  30  31
BRANCH  30  33
ATOM     33  C46 UNK     0       4.288   0.329  -2.718  0.00  0.00    +0.000 C 
BRANCH  33  34
ATOM     34  C50 UNK     0       5.197  -0.317  -3.744  0.00  0.00    +0.000 A 
ATOM     35  C52 UNK     0       5.451   0.340  -4.955  0.00  0.00    +0.000 A 
ATOM     36  C55 UNK     0       6.269  -0.251  -5.923  0.00  0.00    +0.000 A 
ATOM     37  C57 UNK     0       6.817  -1.514  -5.696  0.00  0.00    +0.000 A 
ATOM     38  C54 UNK     0       6.568  -2.181  -4.494  0.00  0.00    +0.000 A 
ATOM     39  C51 UNK     0       5.753  -1.592  -3.524  0.00  0.00    +0.000 A 
ENDBRANCH  33  34
BRANCH  33  40
ATOM     40  N15 UNK     0       4.698  -0.011  -1.347  0.00  0.00    +0.000 N 
ATOM     41 3H10 UNK     0       4.145  -0.703  -0.800  0.00  0.00    +0.000 HD
ATOM     42  C53 UNK     0       5.809   0.642  -0.707  0.00  0.00    +0.000 C 
ATOM     43  O14 UNK     0       6.444   1.539  -1.326  0.00  0.00    +0.000 OA
BRANCH  42  44
ATOM     44  C56 UNK     0       6.224   0.290   0.672  0.00  0.00    +0.000 A 
ATOM     45  C59 UNK     0       5.963  -0.979   1.224  0.00  0.00    +0.000 A 
ATOM     46  C61 UNK     0       6.337  -1.274   2.539  0.00  0.00    +0.000 A 
ATOM     47  C62 UNK     0       6.995  -0.309   3.314  0.00  0.00    +0.000 A 
ATOM     48  C60 UNK     0       7.290   0.942   2.767  0.00  0.00    +0.000 A 
ATOM     49  C58 UNK     0       6.901   1.244   1.459  0.00  0.00    +0.000 A 
ENDBRANCH  42  44
ENDBRANCH  33  40
ENDBRANCH  30  33
ENDBRANCH  28  30
ENDBRANCH  27  28
ENDBRANCH  18  27
BRANCH  17  50
ATOM     50  O6  UNK     0      -1.122  -1.422   4.056  0.00  0.00    +0.000 OA
BRANCH  50  51
ATOM     51  C39 UNK     0      -0.722  -1.184   5.371  0.00  0.00    +0.000 C 
ATOM     52  C43 UNK     0      -1.701  -1.385   6.476  0.00  0.00    +0.000 C 
ATOM     53  O11 UNK     0       0.434  -0.762   5.628  0.00  0.00    +0.000 OA
ENDBRANCH  50  51
ENDBRANCH  17  50
BRANCH   7  54
ATOM     54  O3  UNK     0      -3.457   1.278  -0.144  0.00  0.00    +0.000 OA
BRANCH  54  55
ATOM     55  C37 UNK     0      -4.546   2.097   0.196  0.00  0.00    +0.000 C 
ATOM     56  O10 UNK     0      -5.002   2.097   1.373  0.00  0.00    +0.000 OA
BRANCH  55  57
ATOM     57  C41 UNK     0      -5.160   2.945  -0.846  0.00  0.00    +0.000 A 
ATOM     58  C45 UNK     0      -4.534   3.080  -2.099  0.00  0.00    +0.000 A 
ATOM     59  C48 UNK     0      -5.098   3.903  -3.079  0.00  0.00    +0.000 A 
ATOM     60  C49 UNK     0      -6.274   4.602  -2.816  0.00  0.00    +0.000 A 
ATOM     61  C47 UNK     0      -6.904   4.471  -1.578  0.00  0.00    +0.000 A 
ATOM     62  C44 UNK     0      -6.350   3.649  -0.595  0.00  0.00    +0.000 A 
ENDBRANCH  55  57
ENDBRANCH  54  55
ENDBRANCH   7  54
BRANCH   4  63
ATOM     63  O2  UNK     0      -3.047  -0.547  -2.182  0.00  0.00    +0.000 OA
BRANCH  63  64
ATOM     64  C36 UNK     0      -3.758  -0.403  -3.386  0.00  0.00    +0.000 C 
ATOM     65  O9  UNK     0      -4.882  -0.949  -3.566  0.00  0.00    +0.000 OA
ATOM     66  C38 UNK     0      -3.175   0.437  -4.469  0.00  0.00    +0.000 C 
ENDBRANCH  63  64
ENDBRANCH   4  63
TORSDOF 17
