REMARK  Name = C:\Users\Maximilian\Desktop\Conformers\converted_pdb\conformers_pdb\Paclitaxel_conf_7.pdb
REMARK  23 active torsions:
REMARK  status: ('A' for Active; 'I' for Inactive)
REMARK    1  A    between atoms: C17_4  and  O2_61
REMARK    2  A    between atoms: C18_5  and  C29_16
REMARK    3  A    between atoms: C20_7  and  O3_52
REMARK    4  A    between atoms: C21_8  and  O4_46
REMARK    5  A    between atoms: C22_9  and  O5_65
REMARK    6  A    between atoms: C24_11  and  C33_20
REMARK    7  A    between atoms: C24_11  and  C34_21
REMARK    8  A    between atoms: C30_17  and  O6_48
REMARK    9  A    between atoms: C31_18  and  O8_23
REMARK   10  A    between atoms: C32_19  and  C35_22
REMARK   11  A    between atoms: O8_23  and  C40_24
REMARK   12  A    between atoms: C40_24  and  C42_26
REMARK   13  A    between atoms: C42_26  and  O13_27
REMARK   14  A    between atoms: C42_26  and  C46_29
REMARK   15  A    between atoms: C46_29  and  N15_30
REMARK   16  A    between atoms: C46_29  and  C50_40
REMARK   17  A    between atoms: C53_32  and  C56_34
REMARK   18  A    between atoms: O6_48  and  C39_49
REMARK   19  A    between atoms: C39_49  and  C43_50
REMARK   20  A    between atoms: O3_52  and  C37_53
REMARK   21  A    between atoms: C37_53  and  C41_55
REMARK   22  A    between atoms: O2_61  and  C36_62
REMARK   23  A    between atoms: C36_62  and  C38_64
REMARK                            x       y       z     vdW  Elec       q    Type
REMARK                         _______ _______ _______ _____ _____    ______ ____
ROOT
ATOM      1  O1  UNK     0      -4.374  -1.129  -1.930  0.00  0.00    +0.000 OA
ATOM      2  O7  UNK     0       0.440  -3.098   1.061  0.00  0.00    +0.000 OA
ATOM      3  C16 UNK     0      -1.829  -0.497   0.345  0.00  0.00    +0.000 C 
ATOM      4  C17 UNK     0      -2.611  -0.310  -1.036  0.00  0.00    +0.000 C 
ATOM      5  C18 UNK     0      -1.714  -2.025   0.862  0.00  0.00    +0.000 C 
ATOM      6  C19 UNK     0      -3.015  -1.504  -1.911  0.00  0.00    +0.000 C 
ATOM      7  C20 UNK     0      -2.266   0.671   1.381  0.00  0.00    +0.000 C 
ATOM      8  C21 UNK     0      -1.151   1.544   2.125  0.00  0.00    +0.000 C 
ATOM      9  C22 UNK     0      -1.715  -3.000  -0.388  0.00  0.00    +0.000 C 
ATOM     10  C23 UNK     0      -2.933  -2.882  -1.278  0.00  0.00    +0.000 C 
ATOM     11  C24 UNK     0      -0.445   0.844   3.337  0.00  0.00    +0.000 C 
ATOM     12  C25 UNK     0      -4.133  -0.110  -0.994  0.00  0.00    +0.000 C 
ATOM     13  C26 UNK     0      -0.359  -2.335   1.591  0.00  0.00    +0.000 C 
ATOM     14  C27 UNK     0      -0.105   2.061   1.086  0.00  0.00    +0.000 C 
ATOM     15  C28 UNK     0       0.405  -0.282   2.747  0.00  0.00    +0.000 C 
ATOM     16  C29 UNK     0      -2.906  -2.393   1.784  0.00  0.00    +0.000 C 
ATOM     17  C30 UNK     0       0.111  -1.766   2.916  0.00  0.00    +0.000 C 
ATOM     18  C31 UNK     0       1.264   1.324   1.001  0.00  0.00    +0.000 C 
ATOM     19  C32 UNK     0       1.372   0.068   1.845  0.00  0.00    +0.000 C 
ATOM     20  C33 UNK     0      -1.449   0.425   4.458  0.00  0.00    +0.000 C 
ATOM     21  C34 UNK     0       0.514   1.836   4.077  0.00  0.00    +0.000 C 
ATOM     22  C35 UNK     0       2.600  -0.790   1.616  0.00  0.00    +0.000 C 
ENDROOT
BRANCH   8  23
ATOM     23  O4  UNK     0      -1.768   2.715   2.628  0.00  0.00    +0.000 OA
ATOM     24  H84 UNK     0      -2.548   2.468   3.182  0.00  0.00    +0.000 HD
ENDBRANCH   8  23
BRANCH   9  25
ATOM     25  O5  UNK     0      -1.532  -4.350  -0.011  0.00  0.00    +0.000 OA
ATOM     26  H85 UNK     0      -2.405  -4.718   0.284  0.00  0.00    +0.000 HD
ENDBRANCH   9  25
BRANCH  18  27
ATOM     27  O8  UNK     0       1.539   0.957  -0.353  0.00  0.00    +0.000 OA
BRANCH  27  28
ATOM     28  C40 UNK     0       1.754   1.864  -1.395  0.00  0.00    +0.000 C 
ATOM     29  O12 UNK     0       1.577   3.096  -1.217  0.00  0.00    +0.000 OA
BRANCH  28  30
ATOM     30  C42 UNK     0       2.224   1.362  -2.738  0.00  0.00    +0.000 C 
BRANCH  30  31
ATOM     31  O13 UNK     0       1.388   0.347  -3.240  0.00  0.00    +0.000 OA
ATOM     32 1H10 UNK     0       1.250  -0.342  -2.541  0.00  0.00    +0.000 HD
ENDBRANCH  30  31
BRANCH  30  33
ATOM     33  C46 UNK     0       3.712   0.932  -2.694  0.00  0.00    +0.000 C 
BRANCH  33  34
ATOM     34  C50 UNK     0       4.217   0.568  -4.075  0.00  0.00    +0.000 A 
ATOM     35  C52 UNK     0       3.985  -0.711  -4.620  0.00  0.00    +0.000 A 
ATOM     36  C55 UNK     0       4.444  -1.021  -5.903  0.00  0.00    +0.000 A 
ATOM     37  C57 UNK     0       5.129  -0.064  -6.657  0.00  0.00    +0.000 A 
ATOM     38  C54 UNK     0       5.356   1.209  -6.126  0.00  0.00    +0.000 A 
ATOM     39  C51 UNK     0       4.903   1.527  -4.841  0.00  0.00    +0.000 A 
ENDBRANCH  33  34
BRANCH  33  40
ATOM     40  N15 UNK     0       3.945  -0.168  -1.749  0.00  0.00    +0.000 N 
ATOM     41 3H10 UNK     0       3.149  -0.776  -1.459  0.00  0.00    +0.000 HD
ATOM     42  C53 UNK     0       5.252  -0.437  -1.220  0.00  0.00    +0.000 C 
ATOM     43  O14 UNK     0       6.210   0.339  -1.493  0.00  0.00    +0.000 OA
BRANCH  42  44
ATOM     44  C56 UNK     0       5.485  -1.584  -0.313  0.00  0.00    +0.000 A 
ATOM     45  C59 UNK     0       4.724  -2.761  -0.417  0.00  0.00    +0.000 A 
ATOM     46  C61 UNK     0       4.926  -3.814   0.479  0.00  0.00    +0.000 A 
ATOM     47  C62 UNK     0       5.896  -3.705   1.477  0.00  0.00    +0.000 A 
ATOM     48  C60 UNK     0       6.667  -2.547   1.578  0.00  0.00    +0.000 A 
ATOM     49  C58 UNK     0       6.471  -1.492   0.684  0.00  0.00    +0.000 A 
ENDBRANCH  42  44
ENDBRANCH  33  40
ENDBRANCH  30  33
ENDBRANCH  28  30
ENDBRANCH  27  28
ENDBRANCH  18  27
BRANCH  17  50
ATOM     50  O6  UNK     0      -0.785  -2.102   3.965  0.00  0.00    +0.000 OA
BRANCH  50  51
ATOM     51  C39 UNK     0      -0.983  -3.409   4.424  0.00  0.00    +0.000 C 
ATOM     52  C43 UNK     0      -1.919  -3.652   5.558  0.00  0.00    +0.000 C 
ATOM     53  O11 UNK     0      -0.365  -4.379   3.901  0.00  0.00    +0.000 OA
ENDBRANCH  50  51
ENDBRANCH  17  50
BRANCH   7  54
ATOM     54  O3  UNK     0      -3.065   1.643   0.684  0.00  0.00    +0.000 OA
BRANCH  54  55
ATOM     55  C37 UNK     0      -4.269   2.203   1.141  0.00  0.00    +0.000 C 
ATOM     56  O10 UNK     0      -4.815   1.774   2.195  0.00  0.00    +0.000 OA
BRANCH  55  57
ATOM     57  C41 UNK     0      -4.899   3.296   0.372  0.00  0.00    +0.000 A 
ATOM     58  C45 UNK     0      -4.266   3.805  -0.779  0.00  0.00    +0.000 A 
ATOM     59  C48 UNK     0      -4.866   4.828  -1.520  0.00  0.00    +0.000 A 
ATOM     60  C49 UNK     0      -6.093   5.358  -1.114  0.00  0.00    +0.000 A 
ATOM     61  C47 UNK     0      -6.722   4.873   0.034  0.00  0.00    +0.000 A 
ATOM     62  C44 UNK     0      -6.137   3.837   0.770  0.00  0.00    +0.000 A 
ENDBRANCH  55  57
ENDBRANCH  54  55
ENDBRANCH   7  54
BRANCH   4  63
ATOM     63  O2  UNK     0      -1.947   0.724  -1.793  0.00  0.00    +0.000 OA
BRANCH  63  64
ATOM     64  C36 UNK     0      -2.319   1.265  -3.039  0.00  0.00    +0.000 C 
ATOM     65  O9  UNK     0      -3.334   0.851  -3.667  0.00  0.00    +0.000 OA
ATOM     66  C38 UNK     0      -1.506   2.370  -3.619  0.00  0.00    +0.000 C 
ENDBRANCH  63  64
ENDBRANCH   4  63
TORSDOF 17
