REMARK  Name = C:\Users\Maximilian\Desktop\Conformers\converted_pdb\conformers_pdb\Paclitaxel_conf_34.pdb
REMARK  23 active torsions:
REMARK  status: ('A' for Active; 'I' for Inactive)
REMARK    1  A    between atoms: C17_4  and  O2_61
REMARK    2  A    between atoms: C18_5  and  C29_16
REMARK    3  A    between atoms: C20_7  and  O3_52
REMARK    4  A    between atoms: C21_8  and  O4_46
REMARK    5  A    between atoms: C22_9  and  O5_65
REMARK    6  A    between atoms: C24_11  and  C33_20
REMARK    7  A    between atoms: C24_11  and  C34_21
REMARK    8  A    between atoms: C30_17  and  O6_48
REMARK    9  A    between atoms: C31_18  and  O8_23
REMARK   10  A    between atoms: C32_19  and  C35_22
REMARK   11  A    between atoms: O8_23  and  C40_24
REMARK   12  A    between atoms: C40_24  and  C42_26
REMARK   13  A    between atoms: C42_26  and  O13_27
REMARK   14  A    between atoms: C42_26  and  C46_29
REMARK   15  A    between atoms: C46_29  and  N15_30
REMARK   16  A    between atoms: C46_29  and  C50_40
REMARK   17  A    between atoms: C53_32  and  C56_34
REMARK   18  A    between atoms: O6_48  and  C39_49
REMARK   19  A    between atoms: C39_49  and  C43_50
REMARK   20  A    between atoms: O3_52  and  C37_53
REMARK   21  A    between atoms: C37_53  and  C41_55
REMARK   22  A    between atoms: O2_61  and  C36_62
REMARK   23  A    between atoms: C36_62  and  C38_64
REMARK                            x       y       z     vdW  Elec       q    Type
REMARK                         _______ _______ _______ _____ _____    ______ ____
ROOT
ATOM      1  O1  UNK     0      -4.306  -1.456  -2.638  0.00  0.00    +0.000 OA
ATOM      2  O7  UNK     0      -5.322   0.257   2.926  0.00  0.00    +0.000 OA
ATOM      3  C16 UNK     0      -2.964  -0.088   0.125  0.00  0.00    +0.000 C 
ATOM      4  C17 UNK     0      -2.800  -0.791  -1.280  0.00  0.00    +0.000 C 
ATOM      5  C18 UNK     0      -4.291  -0.534   0.912  0.00  0.00    +0.000 C 
ATOM      6  C19 UNK     0      -3.585  -2.072  -1.593  0.00  0.00    +0.000 C 
ATOM      7  C20 UNK     0      -2.673   1.485   0.057  0.00  0.00    +0.000 C 
ATOM      8  C21 UNK     0      -1.626   2.101   1.093  0.00  0.00    +0.000 C 
ATOM      9  C22 UNK     0      -4.371  -2.093   0.870  0.00  0.00    +0.000 C 
ATOM     10  C23 UNK     0      -4.558  -2.648  -0.553  0.00  0.00    +0.000 C 
ATOM     11  C24 UNK     0      -2.033   1.968   2.619  0.00  0.00    +0.000 C 
ATOM     12  C25 UNK     0      -3.642  -0.236  -2.425  0.00  0.00    +0.000 C 
ATOM     13  C26 UNK     0      -4.287  -0.147   2.414  0.00  0.00    +0.000 C 
ATOM     14  C27 UNK     0      -0.208   1.454   0.836  0.00  0.00    +0.000 C 
ATOM     15  C28 UNK     0      -1.901   0.462   2.961  0.00  0.00    +0.000 C 
ATOM     16  C29 UNK     0      -5.588   0.068   0.270  0.00  0.00    +0.000 C 
ATOM     17  C30 UNK     0      -3.109  -0.383   3.343  0.00  0.00    +0.000 C 
ATOM     18  C31 UNK     0       0.394   0.634   2.009  0.00  0.00    +0.000 C 
ATOM     19  C32 UNK     0      -0.685  -0.141   2.751  0.00  0.00    +0.000 C 
ATOM     20  C33 UNK     0      -3.435   2.601   2.915  0.00  0.00    +0.000 C 
ATOM     21  C34 UNK     0      -1.053   2.776   3.549  0.00  0.00    +0.000 C 
ATOM     22  C35 UNK     0      -0.375  -1.536   3.260  0.00  0.00    +0.000 C 
ENDROOT
BRANCH   8  23
ATOM     23  O4  UNK     0      -1.483   3.476   0.799  0.00  0.00    +0.000 OA
ATOM     24  H84 UNK     0      -2.373   3.904   0.853  0.00  0.00    +0.000 HD
ENDBRANCH   8  23
BRANCH   9  25
ATOM     25  O5  UNK     0      -5.374  -2.591   1.732  0.00  0.00    +0.000 OA
ATOM     26  H85 UNK     0      -6.245  -2.543   1.268  0.00  0.00    +0.000 HD
ENDBRANCH   9  25
BRANCH  18  27
ATOM     27  O8  UNK     0       1.407  -0.235   1.501  0.00  0.00    +0.000 OA
BRANCH  27  28
ATOM     28  C40 UNK     0       2.686   0.224   1.158  0.00  0.00    +0.000 C 
ATOM     29  O12 UNK     0       2.971   1.451   1.269  0.00  0.00    +0.000 OA
BRANCH  28  30
ATOM     30  C42 UNK     0       3.759  -0.768   0.798  0.00  0.00    +0.000 C 
BRANCH  30  31
ATOM     31  O13 UNK     0       4.629  -0.912   1.896  0.00  0.00    +0.000 OA
ATOM     32 1H10 UNK     0       5.116  -0.050   2.007  0.00  0.00    +0.000 HD
ENDBRANCH  30  31
BRANCH  30  33
ATOM     33  C46 UNK     0       4.535  -0.352  -0.486  0.00  0.00    +0.000 C 
BRANCH  33  34
ATOM     34  C50 UNK     0       3.762  -0.703  -1.744  0.00  0.00    +0.000 A 
ATOM     35  C52 UNK     0       2.984   0.273  -2.394  0.00  0.00    +0.000 A 
ATOM     36  C55 UNK     0       2.345  -0.027  -3.601  0.00  0.00    +0.000 A 
ATOM     37  C57 UNK     0       2.459  -1.303  -4.155  0.00  0.00    +0.000 A 
ATOM     38  C54 UNK     0       3.186  -2.294  -3.492  0.00  0.00    +0.000 A 
ATOM     39  C51 UNK     0       3.826  -2.001  -2.287  0.00  0.00    +0.000 A 
ENDBRANCH  33  34
BRANCH  33  40
ATOM     40  N15 UNK     0       5.864  -0.974  -0.526  0.00  0.00    +0.000 N 
ATOM     41 3H10 UNK     0       6.012  -1.866  -0.002  0.00  0.00    +0.000 HD
ATOM     42  C53 UNK     0       6.961  -0.381  -1.246  0.00  0.00    +0.000 C 
ATOM     43  O14 UNK     0       6.754   0.617  -1.992  0.00  0.00    +0.000 OA
BRANCH  42  44
ATOM     44  C56 UNK     0       8.346  -0.881  -1.076  0.00  0.00    +0.000 A 
ATOM     45  C59 UNK     0       9.428   0.018  -1.138  0.00  0.00    +0.000 A 
ATOM     46  C61 UNK     0      10.737  -0.436  -0.946  0.00  0.00    +0.000 A 
ATOM     47  C62 UNK     0      10.981  -1.788  -0.699  0.00  0.00    +0.000 A 
ATOM     48  C60 UNK     0       9.917  -2.692  -0.657  0.00  0.00    +0.000 A 
ATOM     49  C58 UNK     0       8.605  -2.245  -0.844  0.00  0.00    +0.000 A 
ENDBRANCH  42  44
ENDBRANCH  33  40
ENDBRANCH  30  33
ENDBRANCH  28  30
ENDBRANCH  27  28
ENDBRANCH  18  27
BRANCH  17  50
ATOM     50  O6  UNK     0      -3.473  -0.065   4.688  0.00  0.00    +0.000 OA
BRANCH  50  51
ATOM     51  C39 UNK     0      -3.344  -0.941   5.770  0.00  0.00    +0.000 C 
ATOM     52  C43 UNK     0      -3.696  -0.470   7.137  0.00  0.00    +0.000 C 
ATOM     53  O11 UNK     0      -2.945  -2.126   5.609  0.00  0.00    +0.000 OA
ENDBRANCH  50  51
ENDBRANCH  17  50
BRANCH   7  54
ATOM     54  O3  UNK     0      -2.210   1.840  -1.253  0.00  0.00    +0.000 OA
BRANCH  54  55
ATOM     55  C37 UNK     0      -2.709   2.912  -2.007  0.00  0.00    +0.000 C 
ATOM     56  O10 UNK     0      -3.527   3.728  -1.492  0.00  0.00    +0.000 OA
BRANCH  55  57
ATOM     57  C41 UNK     0      -2.332   3.045  -3.428  0.00  0.00    +0.000 A 
ATOM     58  C45 UNK     0      -1.305   2.250  -3.975  0.00  0.00    +0.000 A 
ATOM     59  C48 UNK     0      -1.001   2.331  -5.341  0.00  0.00    +0.000 A 
ATOM     60  C49 UNK     0      -1.721   3.195  -6.174  0.00  0.00    +0.000 A 
ATOM     61  C47 UNK     0      -2.736   3.997  -5.638  0.00  0.00    +0.000 A 
ATOM     62  C44 UNK     0      -3.041   3.923  -4.273  0.00  0.00    +0.000 A 
ENDBRANCH  55  57
ENDBRANCH  54  55
ENDBRANCH   7  54
BRANCH   4  63
ATOM     63  O2  UNK     0      -1.433  -0.857  -1.720  0.00  0.00    +0.000 OA
BRANCH  63  64
ATOM     64  C36 UNK     0      -0.576  -1.948  -1.555  0.00  0.00    +0.000 C 
ATOM     65  O9  UNK     0       0.083  -2.350  -2.559  0.00  0.00    +0.000 OA
ATOM     66  C38 UNK     0      -0.440  -2.686  -0.268  0.00  0.00    +0.000 C 
ENDBRANCH  63  64
ENDBRANCH   4  63
TORSDOF 17
