REMARK  Name = C:\Users\Maximilian\Desktop\Conformers\converted_pdb\conformers_pdb\Paclitaxel_conf_53.pdb
REMARK  23 active torsions:
REMARK  status: ('A' for Active; 'I' for Inactive)
REMARK    1  A    between atoms: C17_4  and  O2_61
REMARK    2  A    between atoms: C18_5  and  C29_16
REMARK    3  A    between atoms: C20_7  and  O3_52
REMARK    4  A    between atoms: C21_8  and  O4_46
REMARK    5  A    between atoms: C22_9  and  O5_65
REMARK    6  A    between atoms: C24_11  and  C33_20
REMARK    7  A    between atoms: C24_11  and  C34_21
REMARK    8  A    between atoms: C30_17  and  O6_48
REMARK    9  A    between atoms: C31_18  and  O8_23
REMARK   10  A    between atoms: C32_19  and  C35_22
REMARK   11  A    between atoms: O8_23  and  C40_24
REMARK   12  A    between atoms: C40_24  and  C42_26
REMARK   13  A    between atoms: C42_26  and  O13_27
REMARK   14  A    between atoms: C42_26  and  C46_29
REMARK   15  A    between atoms: C46_29  and  N15_30
REMARK   16  A    between atoms: C46_29  and  C50_40
REMARK   17  A    between atoms: C53_32  and  C56_34
REMARK   18  A    between atoms: O6_48  and  C39_49
REMARK   19  A    between atoms: C39_49  and  C43_50
REMARK   20  A    between atoms: O3_52  and  C37_53
REMARK   21  A    between atoms: C37_53  and  C41_55
REMARK   22  A    between atoms: O2_61  and  C36_62
REMARK   23  A    between atoms: C36_62  and  C38_64
REMARK                            x       y       z     vdW  Elec       q    Type
REMARK                         _______ _______ _______ _____ _____    ______ ____
ROOT
ATOM      1  O1  UNK     0      -4.394  -0.633  -2.950  0.00  0.00    +0.000 OA
ATOM      2  O7  UNK     0      -1.413  -4.432  -0.640  0.00  0.00    +0.000 OA
ATOM      3  C16 UNK     0      -2.485  -1.082  -0.240  0.00  0.00    +0.000 C 
ATOM      4  C17 UNK     0      -2.890  -0.238  -1.515  0.00  0.00    +0.000 C 
ATOM      5  C18 UNK     0      -2.959  -2.636  -0.201  0.00  0.00    +0.000 C 
ATOM      6  C19 UNK     0      -3.026  -0.971  -2.835  0.00  0.00    +0.000 C 
ATOM      7  C20 UNK     0      -2.653  -0.229   1.106  0.00  0.00    +0.000 C 
ATOM      8  C21 UNK     0      -1.351   0.125   1.972  0.00  0.00    +0.000 C 
ATOM      9  C22 UNK     0      -3.553  -3.107  -1.597  0.00  0.00    +0.000 C 
ATOM     10  C23 UNK     0      -2.809  -2.478  -2.774  0.00  0.00    +0.000 C 
ATOM     11  C24 UNK     0      -0.769  -1.111   2.752  0.00  0.00    +0.000 C 
ATOM     12  C25 UNK     0      -4.368   0.045  -1.712  0.00  0.00    +0.000 C 
ATOM     13  C26 UNK     0      -1.740  -3.556   0.149  0.00  0.00    +0.000 C 
ATOM     14  C27 UNK     0      -0.226   0.775   1.089  0.00  0.00    +0.000 C 
ATOM     15  C28 UNK     0      -0.280  -2.109   1.675  0.00  0.00    +0.000 C 
ATOM     16  C29 UNK     0      -4.088  -2.941   0.823  0.00  0.00    +0.000 C 
ATOM     17  C30 UNK     0      -0.901  -3.495   1.426  0.00  0.00    +0.000 C 
ATOM     18  C31 UNK     0       0.949  -0.153   0.647  0.00  0.00    +0.000 C 
ATOM     19  C32 UNK     0       0.651  -1.645   0.774  0.00  0.00    +0.000 C 
ATOM     20  C33 UNK     0      -1.795  -1.643   3.797  0.00  0.00    +0.000 C 
ATOM     21  C34 UNK     0       0.457  -0.707   3.652  0.00  0.00    +0.000 C 
ATOM     22  C35 UNK     0       1.407  -2.587  -0.147  0.00  0.00    +0.000 C 
ENDROOT
BRANCH   8  23
ATOM     23  O4  UNK     0      -1.731   1.069   2.956  0.00  0.00    +0.000 OA
ATOM     24  H84 UNK     0      -1.875   1.953   2.528  0.00  0.00    +0.000 HD
ENDBRANCH   8  23
BRANCH   9  25
ATOM     25  O5  UNK     0      -4.937  -2.850  -1.702  0.00  0.00    +0.000 OA
ATOM     26  H85 UNK     0      -5.277  -3.350  -2.490  0.00  0.00    +0.000 HD
ENDBRANCH   9  25
BRANCH  18  27
ATOM     27  O8  UNK     0       1.317   0.174  -0.695  0.00  0.00    +0.000 OA
BRANCH  27  28
ATOM     28  C40 UNK     0       1.976   1.365  -1.040  0.00  0.00    +0.000 C 
ATOM     29  O12 UNK     0       2.095   2.301  -0.199  0.00  0.00    +0.000 OA
BRANCH  28  30
ATOM     30  C42 UNK     0       2.557   1.521  -2.418  0.00  0.00    +0.000 C 
BRANCH  30  31
ATOM     31  O13 UNK     0       1.855   0.698  -3.313  0.00  0.00    +0.000 OA
ATOM     32 1H10 UNK     0       2.022   1.045  -4.230  0.00  0.00    +0.000 HD
ENDBRANCH  30  31
BRANCH  30  33
ATOM     33  C46 UNK     0       4.071   1.195  -2.470  0.00  0.00    +0.000 C 
BRANCH  33  34
ATOM     34  C50 UNK     0       4.391  -0.184  -1.919  0.00  0.00    +0.000 A 
ATOM     35  C52 UNK     0       4.388  -1.297  -2.777  0.00  0.00    +0.000 A 
ATOM     36  C55 UNK     0       4.695  -2.567  -2.278  0.00  0.00    +0.000 A 
ATOM     37  C57 UNK     0       4.997  -2.741  -0.930  0.00  0.00    +0.000 A 
ATOM     38  C54 UNK     0       4.979  -1.647  -0.065  0.00  0.00    +0.000 A 
ATOM     39  C51 UNK     0       4.662  -0.378  -0.551  0.00  0.00    +0.000 A 
ENDBRANCH  33  34
BRANCH  33  40
ATOM     40  N15 UNK     0       4.857   2.224  -1.782  0.00  0.00    +0.000 N 
ATOM     41 3H10 UNK     0       4.485   2.649  -0.909  0.00  0.00    +0.000 HD
ATOM     42  C53 UNK     0       6.216   2.518  -2.144  0.00  0.00    +0.000 C 
ATOM     43  O14 UNK     0       6.623   2.241  -3.302  0.00  0.00    +0.000 OA
BRANCH  42  44
ATOM     44  C56 UNK     0       7.142   3.155  -1.179  0.00  0.00    +0.000 A 
ATOM     45  C59 UNK     0       8.174   3.995  -1.641  0.00  0.00    +0.000 A 
ATOM     46  C61 UNK     0       9.056   4.594  -0.738  0.00  0.00    +0.000 A 
ATOM     47  C62 UNK     0       8.939   4.337   0.631  0.00  0.00    +0.000 A 
ATOM     48  C60 UNK     0       7.906   3.522   1.099  0.00  0.00    +0.000 A 
ATOM     49  C58 UNK     0       7.007   2.937   0.202  0.00  0.00    +0.000 A 
ENDBRANCH  42  44
ENDBRANCH  33  40
ENDBRANCH  30  33
ENDBRANCH  28  30
ENDBRANCH  27  28
ENDBRANCH  18  27
BRANCH  17  50
ATOM     50  O6  UNK     0      -1.630  -4.047   2.518  0.00  0.00    +0.000 OA
BRANCH  50  51
ATOM     51  C39 UNK     0      -1.054  -4.830   3.527  0.00  0.00    +0.000 C 
ATOM     52  C43 UNK     0      -1.930  -5.421   4.576  0.00  0.00    +0.000 C 
ATOM     53  O11 UNK     0       0.186  -5.035   3.563  0.00  0.00    +0.000 OA
ENDBRANCH  50  51
ENDBRANCH  17  50
BRANCH   7  54
ATOM     54  O3  UNK     0      -3.337   0.995   0.806  0.00  0.00    +0.000 OA
BRANCH  54  55
ATOM     55  C37 UNK     0      -4.431   1.502   1.525  0.00  0.00    +0.000 C 
ATOM     56  O10 UNK     0      -4.834   0.924   2.575  0.00  0.00    +0.000 OA
BRANCH  55  57
ATOM     57  C41 UNK     0      -5.110   2.726   1.053  0.00  0.00    +0.000 A 
ATOM     58  C45 UNK     0      -6.299   3.171   1.662  0.00  0.00    +0.000 A 
ATOM     59  C48 UNK     0      -6.950   4.316   1.192  0.00  0.00    +0.000 A 
ATOM     60  C49 UNK     0      -6.425   5.026   0.108  0.00  0.00    +0.000 A 
ATOM     61  C47 UNK     0      -5.248   4.589  -0.509  0.00  0.00    +0.000 A 
ATOM     62  C44 UNK     0      -4.588   3.452  -0.033  0.00  0.00    +0.000 A 
ENDBRANCH  55  57
ENDBRANCH  54  55
ENDBRANCH   7  54
BRANCH   4  63
ATOM     63  O2  UNK     0      -2.059   0.931  -1.643  0.00  0.00    +0.000 OA
BRANCH  63  64
ATOM     64  C36 UNK     0      -2.111   1.943  -2.619  0.00  0.00    +0.000 C 
ATOM     65  O9  UNK     0      -2.976   1.939  -3.535  0.00  0.00    +0.000 OA
ATOM     66  C38 UNK     0      -1.087   3.028  -2.592  0.00  0.00    +0.000 C 
ENDBRANCH  63  64
ENDBRANCH   4  63
TORSDOF 17
