REMARK  Name = C:\Users\Maximilian\Desktop\Conformers\converted_pdb\conformers_pdb\Paclitaxel_conf_71.pdb
REMARK  23 active torsions:
REMARK  status: ('A' for Active; 'I' for Inactive)
REMARK    1  A    between atoms: C17_4  and  O2_61
REMARK    2  A    between atoms: C18_5  and  C29_16
REMARK    3  A    between atoms: C20_7  and  O3_52
REMARK    4  A    between atoms: C21_8  and  O4_46
REMARK    5  A    between atoms: C22_9  and  O5_65
REMARK    6  A    between atoms: C24_11  and  C33_20
REMARK    7  A    between atoms: C24_11  and  C34_21
REMARK    8  A    between atoms: C30_17  and  O6_48
REMARK    9  A    between atoms: C31_18  and  O8_23
REMARK   10  A    between atoms: C32_19  and  C35_22
REMARK   11  A    between atoms: O8_23  and  C40_24
REMARK   12  A    between atoms: C40_24  and  C42_26
REMARK   13  A    between atoms: C42_26  and  O13_27
REMARK   14  A    between atoms: C42_26  and  C46_29
REMARK   15  A    between atoms: C46_29  and  N15_30
REMARK   16  A    between atoms: C46_29  and  C50_40
REMARK   17  A    between atoms: C53_32  and  C56_34
REMARK   18  A    between atoms: O6_48  and  C39_49
REMARK   19  A    between atoms: C39_49  and  C43_50
REMARK   20  A    between atoms: O3_52  and  C37_53
REMARK   21  A    between atoms: C37_53  and  C41_55
REMARK   22  A    between atoms: O2_61  and  C36_62
REMARK   23  A    between atoms: C36_62  and  C38_64
REMARK                            x       y       z     vdW  Elec       q    Type
REMARK                         _______ _______ _______ _____ _____    ______ ____
ROOT
ATOM      1  O1  UNK     0      -2.460  -3.225   0.843  0.00  0.00    +0.000 OA
ATOM      2  O7  UNK     0       1.325  -0.173   2.936  0.00  0.00    +0.000 OA
ATOM      3  C16 UNK     0      -1.421  -0.046   0.865  0.00  0.00    +0.000 C 
ATOM      4  C17 UNK     0      -1.840  -1.352   0.072  0.00  0.00    +0.000 C 
ATOM      5  C18 UNK     0      -1.028  -0.229   2.428  0.00  0.00    +0.000 C 
ATOM      6  C19 UNK     0      -1.208  -2.668   0.487  0.00  0.00    +0.000 C 
ATOM      7  C20 UNK     0      -2.367   1.196   0.498  0.00  0.00    +0.000 C 
ATOM      8  C21 UNK     0      -1.732   2.471  -0.233  0.00  0.00    +0.000 C 
ATOM      9  C22 UNK     0      -0.850  -1.757   2.817  0.00  0.00    +0.000 C 
ATOM     10  C23 UNK     0      -0.252  -2.581   1.674  0.00  0.00    +0.000 C 
ATOM     11  C24 UNK     0      -0.880   3.379   0.736  0.00  0.00    +0.000 C 
ATOM     12  C25 UNK     0      -3.126  -2.030   0.517  0.00  0.00    +0.000 C 
ATOM     13  C26 UNK     0       0.326   0.502   2.703  0.00  0.00    +0.000 C 
ATOM     14  C27 UNK     0      -0.861   2.050  -1.472  0.00  0.00    +0.000 C 
ATOM     15  C28 UNK     0       0.321   2.529   1.191  0.00  0.00    +0.000 C 
ATOM     16  C29 UNK     0      -2.094   0.306   3.425  0.00  0.00    +0.000 C 
ATOM     17  C30 UNK     0       0.557   2.017   2.623  0.00  0.00    +0.000 C 
ATOM     18  C31 UNK     0       0.670   1.845  -1.222  0.00  0.00    +0.000 C 
ATOM     19  C32 UNK     0       1.153   2.069   0.207  0.00  0.00    +0.000 C 
ATOM     20  C33 UNK     0      -1.753   3.996   1.867  0.00  0.00    +0.000 C 
ATOM     21  C34 UNK     0      -0.307   4.646   0.012  0.00  0.00    +0.000 C 
ATOM     22  C35 UNK     0       2.596   1.711   0.492  0.00  0.00    +0.000 C 
ENDROOT
BRANCH   8  23
ATOM     23  O4  UNK     0      -2.836   3.225  -0.694  0.00  0.00    +0.000 OA
ATOM     24  H84 UNK     0      -2.523   3.964  -1.268  0.00  0.00    +0.000 HD
ENDBRANCH   8  23
BRANCH   9  25
ATOM     25  O5  UNK     0      -2.059  -2.342   3.250  0.00  0.00    +0.000 OA
ATOM     26  H85 UNK     0      -1.840  -3.226   3.652  0.00  0.00    +0.000 HD
ENDBRANCH   9  25
BRANCH  18  27
ATOM     27  O8  UNK     0       1.042   0.516  -1.589  0.00  0.00    +0.000 OA
BRANCH  27  28
ATOM     28  C40 UNK     0       1.290   0.108  -2.908  0.00  0.00    +0.000 C 
ATOM     29  O12 UNK     0       1.180   0.927  -3.873  0.00  0.00    +0.000 OA
BRANCH  28  30
ATOM     30  C42 UNK     0       1.797  -1.288  -3.170  0.00  0.00    +0.000 C 
BRANCH  30  31
ATOM     31  O13 UNK     0       1.083  -2.233  -2.411  0.00  0.00    +0.000 OA
ATOM     32 1H10 UNK     0       1.169  -2.005  -1.450  0.00  0.00    +0.000 HD
ENDBRANCH  30  31
BRANCH  30  33
ATOM     33  C46 UNK     0       3.329  -1.381  -2.951  0.00  0.00    +0.000 C 
BRANCH  33  34
ATOM     34  C50 UNK     0       3.844  -2.776  -3.226  0.00  0.00    +0.000 A 
ATOM     35  C52 UNK     0       4.439  -3.073  -4.462  0.00  0.00    +0.000 A 
ATOM     36  C55 UNK     0       4.943  -4.351  -4.711  0.00  0.00    +0.000 A 
ATOM     37  C57 UNK     0       4.816  -5.358  -3.752  0.00  0.00    +0.000 A 
ATOM     38  C54 UNK     0       4.211  -5.078  -2.525  0.00  0.00    +0.000 A 
ATOM     39  C51 UNK     0       3.725  -3.795  -2.259  0.00  0.00    +0.000 A 
ENDBRANCH  33  34
BRANCH  33  40
ATOM     40  N15 UNK     0       3.729  -0.953  -1.603  0.00  0.00    +0.000 N 
ATOM     41 3H10 UNK     0       3.087  -1.132  -0.796  0.00  0.00    +0.000 HD
ATOM     42  C53 UNK     0       5.028  -0.393  -1.343  0.00  0.00    +0.000 C 
ATOM     43  O14 UNK     0       5.761  -0.041  -2.306  0.00  0.00    +0.000 OA
BRANCH  42  44
ATOM     44  C56 UNK     0       5.497  -0.164   0.042  0.00  0.00    +0.000 A 
ATOM     45  C59 UNK     0       6.420   0.864   0.309  0.00  0.00    +0.000 A 
ATOM     46  C61 UNK     0       6.858   1.105   1.615  0.00  0.00    +0.000 A 
ATOM     47  C62 UNK     0       6.388   0.317   2.668  0.00  0.00    +0.000 A 
ATOM     48  C60 UNK     0       5.480  -0.714   2.415  0.00  0.00    +0.000 A 
ATOM     49  C58 UNK     0       5.036  -0.959   1.110  0.00  0.00    +0.000 A 
ENDBRANCH  42  44
ENDBRANCH  33  40
ENDBRANCH  30  33
ENDBRANCH  28  30
ENDBRANCH  27  28
ENDBRANCH  18  27
BRANCH  17  50
ATOM     50  O6  UNK     0      -0.181   2.711   3.622  0.00  0.00    +0.000 OA
BRANCH  50  51
ATOM     51  C39 UNK     0       0.014   2.523   4.993  0.00  0.00    +0.000 C 
ATOM     52  C43 UNK     0      -0.971   3.097   5.956  0.00  0.00    +0.000 C 
ATOM     53  O11 UNK     0       1.006   1.861   5.425  0.00  0.00    +0.000 OA
ENDBRANCH  50  51
ENDBRANCH  17  50
BRANCH   7  54
ATOM     54  O3  UNK     0      -3.483   0.738  -0.279  0.00  0.00    +0.000 OA
BRANCH  54  55
ATOM     55  C37 UNK     0      -4.803   1.172  -0.094  0.00  0.00    +0.000 C 
ATOM     56  O10 UNK     0      -5.064   2.065   0.755  0.00  0.00    +0.000 OA
BRANCH  55  57
ATOM     57  C41 UNK     0      -5.898   0.566  -0.880  0.00  0.00    +0.000 A 
ATOM     58  C45 UNK     0      -5.610  -0.351  -1.907  0.00  0.00    +0.000 A 
ATOM     59  C48 UNK     0      -6.643  -0.955  -2.633  0.00  0.00    +0.000 A 
ATOM     60  C49 UNK     0      -7.973  -0.632  -2.351  0.00  0.00    +0.000 A 
ATOM     61  C47 UNK     0      -8.271   0.293  -1.348  0.00  0.00    +0.000 A 
ATOM     62  C44 UNK     0      -7.242   0.885  -0.610  0.00  0.00    +0.000 A 
ENDBRANCH  55  57
ENDBRANCH  54  55
ENDBRANCH   7  54
BRANCH   4  63
ATOM     63  O2  UNK     0      -1.788  -1.129  -1.347  0.00  0.00    +0.000 OA
BRANCH  63  64
ATOM     64  C36 UNK     0      -2.071  -2.031  -2.386  0.00  0.00    +0.000 C 
ATOM     65  O9  UNK     0      -2.488  -3.195  -2.153  0.00  0.00    +0.000 OA
ATOM     66  C38 UNK     0      -1.882  -1.592  -3.802  0.00  0.00    +0.000 C 
ENDBRANCH  63  64
ENDBRANCH   4  63
TORSDOF 17
