REMARK  Name = C:\Users\Maximilian\Desktop\Conformers\converted_pdb\conformers_pdb\Paclitaxel_conf_69.pdb
REMARK  23 active torsions:
REMARK  status: ('A' for Active; 'I' for Inactive)
REMARK    1  A    between atoms: C17_4  and  O2_61
REMARK    2  A    between atoms: C18_5  and  C29_16
REMARK    3  A    between atoms: C20_7  and  O3_52
REMARK    4  A    between atoms: C21_8  and  O4_46
REMARK    5  A    between atoms: C22_9  and  O5_65
REMARK    6  A    between atoms: C24_11  and  C33_20
REMARK    7  A    between atoms: C24_11  and  C34_21
REMARK    8  A    between atoms: C30_17  and  O6_48
REMARK    9  A    between atoms: C31_18  and  O8_23
REMARK   10  A    between atoms: C32_19  and  C35_22
REMARK   11  A    between atoms: O8_23  and  C40_24
REMARK   12  A    between atoms: C40_24  and  C42_26
REMARK   13  A    between atoms: C42_26  and  O13_27
REMARK   14  A    between atoms: C42_26  and  C46_29
REMARK   15  A    between atoms: C46_29  and  N15_30
REMARK   16  A    between atoms: C46_29  and  C50_40
REMARK   17  A    between atoms: C53_32  and  C56_34
REMARK   18  A    between atoms: O6_48  and  C39_49
REMARK   19  A    between atoms: C39_49  and  C43_50
REMARK   20  A    between atoms: O3_52  and  C37_53
REMARK   21  A    between atoms: C37_53  and  C41_55
REMARK   22  A    between atoms: O2_61  and  C36_62
REMARK   23  A    between atoms: C36_62  and  C38_64
REMARK                            x       y       z     vdW  Elec       q    Type
REMARK                         _______ _______ _______ _____ _____    ______ ____
ROOT
ATOM      1  O1  UNK     0      -5.318  -0.941  -0.983  0.00  0.00    +0.000 OA
ATOM      2  O7  UNK     0      -2.531  -1.517   4.120  0.00  0.00    +0.000 OA
ATOM      3  C16 UNK     0      -2.555  -0.139   0.740  0.00  0.00    +0.000 C 
ATOM      4  C17 UNK     0      -3.355  -0.203  -0.623  0.00  0.00    +0.000 C 
ATOM      5  C18 UNK     0      -2.989  -1.268   1.781  0.00  0.00    +0.000 C 
ATOM      6  C19 UNK     0      -4.032  -1.513  -1.046  0.00  0.00    +0.000 C 
ATOM      7  C20 UNK     0      -2.407   1.345   1.310  0.00  0.00    +0.000 C 
ATOM      8  C21 UNK     0      -0.933   1.886   1.617  0.00  0.00    +0.000 C 
ATOM      9  C22 UNK     0      -2.916  -2.631   1.017  0.00  0.00    +0.000 C 
ATOM     10  C23 UNK     0      -3.936  -2.749  -0.128  0.00  0.00    +0.000 C 
ATOM     11  C24 UNK     0      -0.195   1.142   2.801  0.00  0.00    +0.000 C 
ATOM     12  C25 UNK     0      -4.787   0.308  -0.612  0.00  0.00    +0.000 C 
ATOM     13  C26 UNK     0      -2.042  -1.382   3.003  0.00  0.00    +0.000 C 
ATOM     14  C27 UNK     0      -0.060   1.829   0.301  0.00  0.00    +0.000 C 
ATOM     15  C28 UNK     0       0.111  -0.283   2.283  0.00  0.00    +0.000 C 
ATOM     16  C29 UNK     0      -4.441  -1.033   2.325  0.00  0.00    +0.000 C 
ATOM     17  C30 UNK     0      -0.531  -1.519   2.900  0.00  0.00    +0.000 C 
ATOM     18  C31 UNK     0       1.126   0.818   0.282  0.00  0.00    +0.000 C 
ATOM     19  C32 UNK     0       0.853  -0.407   1.140  0.00  0.00    +0.000 C 
ATOM     20  C33 UNK     0      -1.012   1.184   4.134  0.00  0.00    +0.000 C 
ATOM     21  C34 UNK     0       1.158   1.856   3.162  0.00  0.00    +0.000 C 
ATOM     22  C35 UNK     0       1.415  -1.742   0.697  0.00  0.00    +0.000 C 
ENDROOT
BRANCH   8  23
ATOM     23  O4  UNK     0      -1.037   3.256   1.954  0.00  0.00    +0.000 OA
ATOM     24  H84 UNK     0      -1.689   3.354   2.695  0.00  0.00    +0.000 HD
ENDBRANCH   8  23
BRANCH   9  25
ATOM     25  O5  UNK     0      -3.028  -3.734   1.887  0.00  0.00    +0.000 OA
ATOM     26  H85 UNK     0      -3.955  -3.763   2.235  0.00  0.00    +0.000 HD
ENDBRANCH   9  25
BRANCH  18  27
ATOM     27  O8  UNK     0       1.397   0.420  -1.063  0.00  0.00    +0.000 OA
BRANCH  27  28
ATOM     28  C40 UNK     0       2.060   1.228  -1.994  0.00  0.00    +0.000 C 
ATOM     29  O12 UNK     0       2.284   2.444  -1.742  0.00  0.00    +0.000 OA
BRANCH  28  30
ATOM     30  C42 UNK     0       2.606   0.626  -3.264  0.00  0.00    +0.000 C 
BRANCH  30  31
ATOM     31  O13 UNK     0       1.831  -0.468  -3.695  0.00  0.00    +0.000 OA
ATOM     32 1H10 UNK     0       1.794  -1.143  -2.969  0.00  0.00    +0.000 HD
ENDBRANCH  30  31
BRANCH  30  33
ATOM     33  C46 UNK     0       4.100   0.257  -3.100  0.00  0.00    +0.000 C 
BRANCH  33  34
ATOM     34  C50 UNK     0       4.664  -0.342  -4.376  0.00  0.00    +0.000 A 
ATOM     35  C52 UNK     0       4.450  -1.693  -4.708  0.00  0.00    +0.000 A 
ATOM     36  C55 UNK     0       4.951  -2.218  -5.904  0.00  0.00    +0.000 A 
ATOM     37  C57 UNK     0       5.659  -1.401  -6.786  0.00  0.00    +0.000 A 
ATOM     38  C54 UNK     0       5.862  -0.054  -6.479  0.00  0.00    +0.000 A 
ATOM     39  C51 UNK     0       5.364   0.477  -5.284  0.00  0.00    +0.000 A 
ENDBRANCH  33  34
BRANCH  33  40
ATOM     40  N15 UNK     0       4.313  -0.648  -1.959  0.00  0.00    +0.000 N 
ATOM     41 3H10 UNK     0       3.731  -1.509  -1.899  0.00  0.00    +0.000 HD
ATOM     42  C53 UNK     0       5.266  -0.379  -0.913  0.00  0.00    +0.000 C 
ATOM     43  O14 UNK     0       5.963   0.671  -0.956  0.00  0.00    +0.000 OA
BRANCH  42  44
ATOM     44  C56 UNK     0       5.431  -1.305   0.238  0.00  0.00    +0.000 A 
ATOM     45  C59 UNK     0       5.124  -2.677   0.132  0.00  0.00    +0.000 A 
ATOM     46  C61 UNK     0       5.287  -3.529   1.230  0.00  0.00    +0.000 A 
ATOM     47  C62 UNK     0       5.770  -3.027   2.441  0.00  0.00    +0.000 A 
ATOM     48  C60 UNK     0       6.095  -1.674   2.554  0.00  0.00    +0.000 A 
ATOM     49  C58 UNK     0       5.928  -0.817   1.462  0.00  0.00    +0.000 A 
ENDBRANCH  42  44
ENDBRANCH  33  40
ENDBRANCH  30  33
ENDBRANCH  28  30
ENDBRANCH  27  28
ENDBRANCH  18  27
BRANCH  17  50
ATOM     50  O6  UNK     0       0.071  -1.753   4.176  0.00  0.00    +0.000 OA
BRANCH  50  51
ATOM     51  C39 UNK     0      -0.065  -2.948   4.890  0.00  0.00    +0.000 C 
ATOM     52  C43 UNK     0       0.548  -3.063   6.243  0.00  0.00    +0.000 C 
ATOM     53  O11 UNK     0      -0.684  -3.928   4.396  0.00  0.00    +0.000 OA
ENDBRANCH  50  51
ENDBRANCH  17  50
BRANCH   7  54
ATOM     54  O3  UNK     0      -3.007   2.270   0.392  0.00  0.00    +0.000 OA
BRANCH  54  55
ATOM     55  C37 UNK     0      -3.926   3.272   0.739  0.00  0.00    +0.000 C 
ATOM     56  O10 UNK     0      -4.256   3.445   1.946  0.00  0.00    +0.000 OA
BRANCH  55  57
ATOM     57  C41 UNK     0      -4.535   4.099  -0.324  0.00  0.00    +0.000 A 
ATOM     58  C45 UNK     0      -4.128   3.949  -1.662  0.00  0.00    +0.000 A 
ATOM     59  C48 UNK     0      -4.721   4.713  -2.673  0.00  0.00    +0.000 A 
ATOM     60  C49 UNK     0      -5.726   5.631  -2.358  0.00  0.00    +0.000 A 
ATOM     61  C47 UNK     0      -6.137   5.790  -1.034  0.00  0.00    +0.000 A 
ATOM     62  C44 UNK     0      -5.548   5.028  -0.021  0.00  0.00    +0.000 A 
ENDBRANCH  55  57
ENDBRANCH  54  55
ENDBRANCH   7  54
BRANCH   4  63
ATOM     63  O2  UNK     0      -2.658   0.409  -1.713  0.00  0.00    +0.000 OA
BRANCH  63  64
ATOM     64  C36 UNK     0      -1.633  -0.195  -2.448  0.00  0.00    +0.000 C 
ATOM     65  O9  UNK     0      -1.088  -1.260  -2.051  0.00  0.00    +0.000 OA
ATOM     66  C38 UNK     0      -1.178   0.454  -3.712  0.00  0.00    +0.000 C 
ENDBRANCH  63  64
ENDBRANCH   4  63
TORSDOF 17
