REMARK  Name = C:\Users\Maximilian\Desktop\Conformers\converted_pdb\conformers_pdb\Paclitaxel_conf_33.pdb
REMARK  23 active torsions:
REMARK  status: ('A' for Active; 'I' for Inactive)
REMARK    1  A    between atoms: C17_4  and  O2_61
REMARK    2  A    between atoms: C18_5  and  C29_16
REMARK    3  A    between atoms: C20_7  and  O3_52
REMARK    4  A    between atoms: C21_8  and  O4_46
REMARK    5  A    between atoms: C22_9  and  O5_65
REMARK    6  A    between atoms: C24_11  and  C33_20
REMARK    7  A    between atoms: C24_11  and  C34_21
REMARK    8  A    between atoms: C30_17  and  O6_48
REMARK    9  A    between atoms: C31_18  and  O8_23
REMARK   10  A    between atoms: C32_19  and  C35_22
REMARK   11  A    between atoms: O8_23  and  C40_24
REMARK   12  A    between atoms: C40_24  and  C42_26
REMARK   13  A    between atoms: C42_26  and  O13_27
REMARK   14  A    between atoms: C42_26  and  C46_29
REMARK   15  A    between atoms: C46_29  and  N15_30
REMARK   16  A    between atoms: C46_29  and  C50_40
REMARK   17  A    between atoms: C53_32  and  C56_34
REMARK   18  A    between atoms: O6_48  and  C39_49
REMARK   19  A    between atoms: C39_49  and  C43_50
REMARK   20  A    between atoms: O3_52  and  C37_53
REMARK   21  A    between atoms: C37_53  and  C41_55
REMARK   22  A    between atoms: O2_61  and  C36_62
REMARK   23  A    between atoms: C36_62  and  C38_64
REMARK                            x       y       z     vdW  Elec       q    Type
REMARK                         _______ _______ _______ _____ _____    ______ ____
ROOT
ATOM      1  O1  UNK     0      -7.077  -1.476   0.284  0.00  0.00    +0.000 OA
ATOM      2  O7  UNK     0      -2.288   1.160  -1.825  0.00  0.00    +0.000 OA
ATOM      3  C16 UNK     0      -3.814  -0.864   0.225  0.00  0.00    +0.000 C 
ATOM      4  C17 UNK     0      -5.091  -1.287   1.024  0.00  0.00    +0.000 C 
ATOM      5  C18 UNK     0      -4.087  -0.291  -1.259  0.00  0.00    +0.000 C 
ATOM      6  C19 UNK     0      -6.321  -0.396   0.783  0.00  0.00    +0.000 C 
ATOM      7  C20 UNK     0      -2.365  -1.292   0.783  0.00  0.00    +0.000 C 
ATOM      8  C21 UNK     0      -1.569  -2.647   0.446  0.00  0.00    +0.000 C 
ATOM      9  C22 UNK     0      -4.926   1.029  -1.028  0.00  0.00    +0.000 C 
ATOM     10  C23 UNK     0      -6.264   0.782  -0.248  0.00  0.00    +0.000 C 
ATOM     11  C24 UNK     0      -1.528  -3.050  -1.063  0.00  0.00    +0.000 C 
ATOM     12  C25 UNK     0      -6.008  -2.373   0.487  0.00  0.00    +0.000 C 
ATOM     13  C26 UNK     0      -2.750   0.037  -1.961  0.00  0.00    +0.000 C 
ATOM     14  C27 UNK     0      -0.083  -2.485   0.919  0.00  0.00    +0.000 C 
ATOM     15  C28 UNK     0      -1.015  -1.800  -1.809  0.00  0.00    +0.000 C 
ATOM     16  C29 UNK     0      -4.973  -1.125  -2.250  0.00  0.00    +0.000 C 
ATOM     17  C30 UNK     0      -1.892  -0.960  -2.751  0.00  0.00    +0.000 C 
ATOM     18  C31 UNK     0       0.858  -1.735  -0.083  0.00  0.00    +0.000 C 
ATOM     19  C32 UNK     0       0.191  -1.287  -1.394  0.00  0.00    +0.000 C 
ATOM     20  C33 UNK     0      -2.897  -3.645  -1.446  0.00  0.00    +0.000 C 
ATOM     21  C34 UNK     0      -0.552  -4.237  -1.374  0.00  0.00    +0.000 C 
ATOM     22  C35 UNK     0       0.989  -0.352  -2.284  0.00  0.00    +0.000 C 
ENDROOT
BRANCH   8  23
ATOM     23  O4  UNK     0      -2.154  -3.710   1.174  0.00  0.00    +0.000 OA
ATOM     24  H84 UNK     0      -1.984  -3.569   2.142  0.00  0.00    +0.000 HD
ENDBRANCH   8  23
BRANCH   9  25
ATOM     25  O5  UNK     0      -5.144   1.741  -2.227  0.00  0.00    +0.000 OA
ATOM     26  H85 UNK     0      -5.924   1.351  -2.698  0.00  0.00    +0.000 HD
ENDBRANCH   9  25
BRANCH  18  27
ATOM     27  O8  UNK     0       1.445  -0.602   0.562  0.00  0.00    +0.000 OA
BRANCH  27  28
ATOM     28  C40 UNK     0       2.452  -0.710   1.530  0.00  0.00    +0.000 C 
ATOM     29  O12 UNK     0       2.755  -1.832   2.020  0.00  0.00    +0.000 OA
BRANCH  28  30
ATOM     30  C42 UNK     0       3.228   0.511   1.935  0.00  0.00    +0.000 C 
BRANCH  30  31
ATOM     31  O13 UNK     0       2.336   1.531   2.296  0.00  0.00    +0.000 OA
ATOM     32 1H10 UNK     0       1.962   1.288   3.183  0.00  0.00    +0.000 HD
ENDBRANCH  30  31
BRANCH  30  33
ATOM     33  C46 UNK     0       4.114   0.993   0.764  0.00  0.00    +0.000 C 
BRANCH  33  34
ATOM     34  C50 UNK     0       5.171  -0.042   0.427  0.00  0.00    +0.000 A 
ATOM     35  C52 UNK     0       6.269  -0.250   1.283  0.00  0.00    +0.000 A 
ATOM     36  C55 UNK     0       7.221  -1.230   0.987  0.00  0.00    +0.000 A 
ATOM     37  C57 UNK     0       7.087  -2.012  -0.161  0.00  0.00    +0.000 A 
ATOM     38  C54 UNK     0       5.996  -1.821  -1.014  0.00  0.00    +0.000 A 
ATOM     39  C51 UNK     0       5.042  -0.842  -0.721  0.00  0.00    +0.000 A 
ENDBRANCH  33  34
BRANCH  33  40
ATOM     40  N15 UNK     0       4.761   2.269   1.088  0.00  0.00    +0.000 N 
ATOM     41 3H10 UNK     0       4.777   2.594   2.080  0.00  0.00    +0.000 HD
ATOM     42  C53 UNK     0       5.381   3.079   0.075  0.00  0.00    +0.000 C 
ATOM     43  O14 UNK     0       5.135   2.845  -1.140  0.00  0.00    +0.000 OA
BRANCH  42  44
ATOM     44  C56 UNK     0       6.296   4.191   0.431  0.00  0.00    +0.000 A 
ATOM     45  C59 UNK     0       6.524   5.235  -0.485  0.00  0.00    +0.000 A 
ATOM     46  C61 UNK     0       7.395   6.280  -0.164  0.00  0.00    +0.000 A 
ATOM     47  C62 UNK     0       8.054   6.291   1.066  0.00  0.00    +0.000 A 
ATOM     48  C60 UNK     0       7.843   5.257   1.979  0.00  0.00    +0.000 A 
ATOM     49  C58 UNK     0       6.973   4.209   1.665  0.00  0.00    +0.000 A 
ENDBRANCH  42  44
ENDBRANCH  33  40
ENDBRANCH  30  33
ENDBRANCH  28  30
ENDBRANCH  27  28
ENDBRANCH  18  27
BRANCH  17  50
ATOM     50  O6  UNK     0      -2.645  -1.751  -3.664  0.00  0.00    +0.000 OA
BRANCH  50  51
ATOM     51  C39 UNK     0      -2.063  -2.486  -4.704  0.00  0.00    +0.000 C 
ATOM     52  C43 UNK     0      -2.932  -3.312  -5.590  0.00  0.00    +0.000 C 
ATOM     53  O11 UNK     0      -0.820  -2.425  -4.923  0.00  0.00    +0.000 OA
ENDBRANCH  50  51
ENDBRANCH  17  50
BRANCH   7  54
ATOM     54  O3  UNK     0      -1.485  -0.149   0.698  0.00  0.00    +0.000 OA
BRANCH  54  55
ATOM     55  C37 UNK     0      -1.298   0.775   1.748  0.00  0.00    +0.000 C 
ATOM     56  O10 UNK     0      -1.701   0.501   2.911  0.00  0.00    +0.000 OA
BRANCH  55  57
ATOM     57  C41 UNK     0      -0.616   2.067   1.507  0.00  0.00    +0.000 A 
ATOM     58  C45 UNK     0      -0.022   2.340   0.266  0.00  0.00    +0.000 A 
ATOM     59  C48 UNK     0       0.647   3.547   0.047  0.00  0.00    +0.000 A 
ATOM     60  C49 UNK     0       0.728   4.497   1.066  0.00  0.00    +0.000 A 
ATOM     61  C47 UNK     0       0.133   4.243   2.305  0.00  0.00    +0.000 A 
ATOM     62  C44 UNK     0      -0.539   3.037   2.526  0.00  0.00    +0.000 A 
ENDBRANCH  55  57
ENDBRANCH  54  55
ENDBRANCH   7  54
BRANCH   4  63
ATOM     63  O2  UNK     0      -4.854  -1.514   2.423  0.00  0.00    +0.000 OA
BRANCH  63  64
ATOM     64  C36 UNK     0      -4.613  -0.512   3.374  0.00  0.00    +0.000 C 
ATOM     65  O9  UNK     0      -4.684   0.708   3.065  0.00  0.00    +0.000 OA
ATOM     66  C38 UNK     0      -4.314  -0.900   4.780  0.00  0.00    +0.000 C 
ENDBRANCH  63  64
ENDBRANCH   4  63
TORSDOF 17
