REMARK  Name = C:\Users\Maximilian\Desktop\Conformers\converted_pdb\conformers_pdb\Paclitaxel_conf_64.pdb
REMARK  23 active torsions:
REMARK  status: ('A' for Active; 'I' for Inactive)
REMARK    1  A    between atoms: C17_4  and  O2_61
REMARK    2  A    between atoms: C18_5  and  C29_16
REMARK    3  A    between atoms: C20_7  and  O3_52
REMARK    4  A    between atoms: C21_8  and  O4_46
REMARK    5  A    between atoms: C22_9  and  O5_65
REMARK    6  A    between atoms: C24_11  and  C33_20
REMARK    7  A    between atoms: C24_11  and  C34_21
REMARK    8  A    between atoms: C30_17  and  O6_48
REMARK    9  A    between atoms: C31_18  and  O8_23
REMARK   10  A    between atoms: C32_19  and  C35_22
REMARK   11  A    between atoms: O8_23  and  C40_24
REMARK   12  A    between atoms: C40_24  and  C42_26
REMARK   13  A    between atoms: C42_26  and  O13_27
REMARK   14  A    between atoms: C42_26  and  C46_29
REMARK   15  A    between atoms: C46_29  and  N15_30
REMARK   16  A    between atoms: C46_29  and  C50_40
REMARK   17  A    between atoms: C53_32  and  C56_34
REMARK   18  A    between atoms: O6_48  and  C39_49
REMARK   19  A    between atoms: C39_49  and  C43_50
REMARK   20  A    between atoms: O3_52  and  C37_53
REMARK   21  A    between atoms: C37_53  and  C41_55
REMARK   22  A    between atoms: O2_61  and  C36_62
REMARK   23  A    between atoms: C36_62  and  C38_64
REMARK                            x       y       z     vdW  Elec       q    Type
REMARK                         _______ _______ _______ _____ _____    ______ ____
ROOT
ATOM      1  O1  UNK     0      -5.303   1.350  -2.378  0.00  0.00    +0.000 OA
ATOM      2  O7  UNK     0      -2.941  -4.033  -2.319  0.00  0.00    +0.000 OA
ATOM      3  C16 UNK     0      -3.130  -0.668  -0.806  0.00  0.00    +0.000 C 
ATOM      4  C17 UNK     0      -3.791   0.766  -0.974  0.00  0.00    +0.000 C 
ATOM      5  C18 UNK     0      -3.665  -1.817  -1.800  0.00  0.00    +0.000 C 
ATOM      6  C19 UNK     0      -3.904   1.193  -2.440  0.00  0.00    +0.000 C 
ATOM      7  C20 UNK     0      -2.878  -1.138   0.699  0.00  0.00    +0.000 C 
ATOM      8  C21 UNK     0      -1.371  -1.459   1.161  0.00  0.00    +0.000 C 
ATOM      9  C22 UNK     0      -4.099  -1.226  -3.205  0.00  0.00    +0.000 C 
ATOM     10  C23 UNK     0      -3.500   0.154  -3.491  0.00  0.00    +0.000 C 
ATOM     11  C24 UNK     0      -0.635  -2.598   0.325  0.00  0.00    +0.000 C 
ATOM     12  C25 UNK     0      -5.315   0.964  -1.024  0.00  0.00    +0.000 C 
ATOM     13  C26 UNK     0      -2.576  -2.885  -2.108  0.00  0.00    +0.000 C 
ATOM     14  C27 UNK     0      -0.524  -0.126   1.136  0.00  0.00    +0.000 C 
ATOM     15  C28 UNK     0      -0.421  -2.006  -1.085  0.00  0.00    +0.000 C 
ATOM     16  C29 UNK     0      -4.879  -2.595  -1.171  0.00  0.00    +0.000 C 
ATOM     17  C30 UNK     0      -1.097  -2.587  -2.324  0.00  0.00    +0.000 C 
ATOM     18  C31 UNK     0       0.648  -0.083   0.112  0.00  0.00    +0.000 C 
ATOM     19  C32 UNK     0       0.296  -0.833  -1.169  0.00  0.00    +0.000 C 
ATOM     20  C33 UNK     0      -1.431  -3.936   0.384  0.00  0.00    +0.000 C 
ATOM     21  C34 UNK     0       0.789  -2.985   0.896  0.00  0.00    +0.000 C 
ATOM     22  C35 UNK     0       0.722  -0.242  -2.499  0.00  0.00    +0.000 C 
ENDROOT
BRANCH   8  23
ATOM     23  O4  UNK     0      -1.495  -1.901   2.502  0.00  0.00    +0.000 OA
ATOM     24  H84 UNK     0      -0.598  -2.011   2.914  0.00  0.00    +0.000 HD
ENDBRANCH   8  23
BRANCH   9  25
ATOM     25  O5  UNK     0      -5.502  -1.148  -3.337  0.00  0.00    +0.000 OA
ATOM     26  H85 UNK     0      -5.729  -1.378  -4.277  0.00  0.00    +0.000 HD
ENDBRANCH   9  25
BRANCH  18  27
ATOM     27  O8  UNK     0       0.996   1.275  -0.161  0.00  0.00    +0.000 OA
BRANCH  27  28
ATOM     28  C40 UNK     0       1.691   2.084   0.755  0.00  0.00    +0.000 C 
ATOM     29  O12 UNK     0       1.811   1.733   1.959  0.00  0.00    +0.000 OA
BRANCH  28  30
ATOM     30  C42 UNK     0       2.335   3.359   0.283  0.00  0.00    +0.000 C 
BRANCH  30  31
ATOM     31  O13 UNK     0       1.604   3.895  -0.792  0.00  0.00    +0.000 OA
ATOM     32 1H10 UNK     0       0.745   4.227  -0.417  0.00  0.00    +0.000 HD
ENDBRANCH  30  31
BRANCH  30  33
ATOM     33  C46 UNK     0       3.812   3.164  -0.143  0.00  0.00    +0.000 C 
BRANCH  33  34
ATOM     34  C50 UNK     0       3.968   2.166  -1.279  0.00  0.00    +0.000 A 
ATOM     35  C52 UNK     0       4.110   0.786  -1.020  0.00  0.00    +0.000 A 
ATOM     36  C55 UNK     0       4.279  -0.118  -2.075  0.00  0.00    +0.000 A 
ATOM     37  C57 UNK     0       4.294   0.342  -3.395  0.00  0.00    +0.000 A 
ATOM     38  C54 UNK     0       4.122   1.703  -3.665  0.00  0.00    +0.000 A 
ATOM     39  C51 UNK     0       3.956   2.611  -2.613  0.00  0.00    +0.000 A 
ENDBRANCH  33  34
BRANCH  33  40
ATOM     40  N15 UNK     0       4.662   2.789   0.996  0.00  0.00    +0.000 N 
ATOM     41 3H10 UNK     0       4.255   2.230   1.776  0.00  0.00    +0.000 HD
ATOM     42  C53 UNK     0       6.085   2.998   0.972  0.00  0.00    +0.000 C 
ATOM     43  O14 UNK     0       6.559   3.961   0.305  0.00  0.00    +0.000 OA
BRANCH  42  44
ATOM     44  C56 UNK     0       7.004   2.117   1.734  0.00  0.00    +0.000 A 
ATOM     45  C59 UNK     0       6.616   0.814   2.108  0.00  0.00    +0.000 A 
ATOM     46  C61 UNK     0       7.512  -0.020   2.785  0.00  0.00    +0.000 A 
ATOM     47  C62 UNK     0       8.794   0.435   3.102  0.00  0.00    +0.000 A 
ATOM     48  C60 UNK     0       9.189   1.722   2.731  0.00  0.00    +0.000 A 
ATOM     49  C58 UNK     0       8.302   2.559   2.049  0.00  0.00    +0.000 A 
ENDBRANCH  42  44
ENDBRANCH  33  40
ENDBRANCH  30  33
ENDBRANCH  28  30
ENDBRANCH  27  28
ENDBRANCH  18  27
BRANCH  17  50
ATOM     50  O6  UNK     0      -0.367  -3.755  -2.709  0.00  0.00    +0.000 OA
BRANCH  50  51
ATOM     51  C39 UNK     0      -0.482  -4.368  -3.962  0.00  0.00    +0.000 C 
ATOM     52  C43 UNK     0       0.370  -5.551  -4.277  0.00  0.00    +0.000 C 
ATOM     53  O11 UNK     0      -1.275  -3.916  -4.830  0.00  0.00    +0.000 OA
ENDBRANCH  50  51
ENDBRANCH  17  50
BRANCH   7  54
ATOM     54  O3  UNK     0      -3.419  -0.166   1.603  0.00  0.00    +0.000 OA
BRANCH  54  55
ATOM     55  C37 UNK     0      -3.877  -0.471   2.894  0.00  0.00    +0.000 C 
ATOM     56  O10 UNK     0      -4.535  -1.531   3.096  0.00  0.00    +0.000 OA
BRANCH  55  57
ATOM     57  C41 UNK     0      -3.535   0.413   4.032  0.00  0.00    +0.000 A 
ATOM     58  C45 UNK     0      -4.069   0.179   5.312  0.00  0.00    +0.000 A 
ATOM     59  C48 UNK     0      -3.695   0.978   6.393  0.00  0.00    +0.000 A 
ATOM     60  C49 UNK     0      -2.765   2.009   6.215  0.00  0.00    +0.000 A 
ATOM     61  C47 UNK     0      -2.225   2.246   4.949  0.00  0.00    +0.000 A 
ATOM     62  C44 UNK     0      -2.601   1.454   3.865  0.00  0.00    +0.000 A 
ENDBRANCH  55  57
ENDBRANCH  54  55
ENDBRANCH   7  54
BRANCH   4  63
ATOM     63  O2  UNK     0      -3.044   1.794  -0.297  0.00  0.00    +0.000 OA
BRANCH  63  64
ATOM     64  C36 UNK     0      -3.473   2.667   0.720  0.00  0.00    +0.000 C 
ATOM     65  O9  UNK     0      -4.474   2.399   1.437  0.00  0.00    +0.000 OA
ATOM     66  C38 UNK     0      -2.719   3.931   0.965  0.00  0.00    +0.000 C 
ENDBRANCH  63  64
ENDBRANCH   4  63
TORSDOF 17
