REMARK  Name = C:\Users\Maximilian\Desktop\Conformers\converted_pdb\conformers_pdb\Paclitaxel_conf_56.pdb
REMARK  23 active torsions:
REMARK  status: ('A' for Active; 'I' for Inactive)
REMARK    1  A    between atoms: C17_4  and  O2_61
REMARK    2  A    between atoms: C18_5  and  C29_16
REMARK    3  A    between atoms: C20_7  and  O3_52
REMARK    4  A    between atoms: C21_8  and  O4_46
REMARK    5  A    between atoms: C22_9  and  O5_65
REMARK    6  A    between atoms: C24_11  and  C33_20
REMARK    7  A    between atoms: C24_11  and  C34_21
REMARK    8  A    between atoms: C30_17  and  O6_48
REMARK    9  A    between atoms: C31_18  and  O8_23
REMARK   10  A    between atoms: C32_19  and  C35_22
REMARK   11  A    between atoms: O8_23  and  C40_24
REMARK   12  A    between atoms: C40_24  and  C42_26
REMARK   13  A    between atoms: C42_26  and  O13_27
REMARK   14  A    between atoms: C42_26  and  C46_29
REMARK   15  A    between atoms: C46_29  and  N15_30
REMARK   16  A    between atoms: C46_29  and  C50_40
REMARK   17  A    between atoms: C53_32  and  C56_34
REMARK   18  A    between atoms: O6_48  and  C39_49
REMARK   19  A    between atoms: C39_49  and  C43_50
REMARK   20  A    between atoms: O3_52  and  C37_53
REMARK   21  A    between atoms: C37_53  and  C41_55
REMARK   22  A    between atoms: O2_61  and  C36_62
REMARK   23  A    between atoms: C36_62  and  C38_64
REMARK                            x       y       z     vdW  Elec       q    Type
REMARK                         _______ _______ _______ _____ _____    ______ ____
ROOT
ATOM      1  O1  UNK     0      -5.994   0.911   2.820  0.00  0.00    +0.000 OA
ATOM      2  O7  UNK     0      -3.868  -3.588  -0.416  0.00  0.00    +0.000 OA
ATOM      3  C16 UNK     0      -3.906  -0.223   0.488  0.00  0.00    +0.000 C 
ATOM      4  C17 UNK     0      -4.964   0.831   0.967  0.00  0.00    +0.000 C 
ATOM      5  C18 UNK     0      -4.087  -1.743   1.128  0.00  0.00    +0.000 C 
ATOM      6  C19 UNK     0      -6.294   0.373   1.549  0.00  0.00    +0.000 C 
ATOM      7  C20 UNK     0      -2.519   0.573   0.249  0.00  0.00    +0.000 C 
ATOM      8  C21 UNK     0      -1.274  -0.290   0.459  0.00  0.00    +0.000 C 
ATOM      9  C22 UNK     0      -5.620  -2.058   0.868  0.00  0.00    +0.000 C 
ATOM     10  C23 UNK     0      -6.592  -1.137   1.635  0.00  0.00    +0.000 C 
ATOM     11  C24 UNK     0      -1.000  -1.333  -0.747  0.00  0.00    +0.000 C 
ATOM     12  C25 UNK     0      -4.753   1.395   2.359  0.00  0.00    +0.000 C 
ATOM     13  C26 UNK     0      -3.260  -2.916   0.412  0.00  0.00    +0.000 C 
ATOM     14  C27 UNK     0       0.121   0.298   0.779  0.00  0.00    +0.000 C 
ATOM     15  C28 UNK     0      -0.623  -2.537   0.074  0.00  0.00    +0.000 C 
ATOM     16  C29 UNK     0      -3.927  -1.889   2.689  0.00  0.00    +0.000 C 
ATOM     17  C30 UNK     0      -1.788  -3.414   0.640  0.00  0.00    +0.000 C 
ATOM     18  C31 UNK     0       1.045  -0.924   1.223  0.00  0.00    +0.000 C 
ATOM     19  C32 UNK     0       0.539  -2.366   0.817  0.00  0.00    +0.000 C 
ATOM     20  C33 UNK     0       0.202  -0.970  -1.720  0.00  0.00    +0.000 C 
ATOM     21  C34 UNK     0      -2.093  -1.599  -1.847  0.00  0.00    +0.000 C 
ATOM     22  C35 UNK     0       1.182  -3.542   1.511  0.00  0.00    +0.000 C 
ENDROOT
BRANCH   8  23
ATOM     23  O4  UNK     0      -1.569  -0.895   1.702  0.00  0.00    +0.000 OA
ATOM     24  H84 UNK     0      -1.621  -0.205   2.420  0.00  0.00    +0.000 HD
ENDBRANCH   8  23
BRANCH   9  25
ATOM     25  O5  UNK     0      -5.924  -3.392   1.212  0.00  0.00    +0.000 OA
ATOM     26  H85 UNK     0      -6.778  -3.627   0.764  0.00  0.00    +0.000 HD
ENDBRANCH   9  25
BRANCH  18  27
ATOM     27  O8  UNK     0       2.374  -0.705   0.752  0.00  0.00    +0.000 OA
BRANCH  27  28
ATOM     28  C40 UNK     0       3.531  -0.966   1.493  0.00  0.00    +0.000 C 
ATOM     29  O12 UNK     0       3.454  -1.410   2.673  0.00  0.00    +0.000 OA
BRANCH  28  30
ATOM     30  C42 UNK     0       4.878  -0.718   0.861  0.00  0.00    +0.000 C 
BRANCH  30  31
ATOM     31  O13 UNK     0       5.913  -1.077   1.746  0.00  0.00    +0.000 OA
ATOM     32 1H10 UNK     0       5.887  -0.445   2.511  0.00  0.00    +0.000 HD
ENDBRANCH  30  31
BRANCH  30  33
ATOM     33  C46 UNK     0       5.036   0.758   0.403  0.00  0.00    +0.000 C 
BRANCH  33  34
ATOM     34  C50 UNK     0       4.095   1.121  -0.737  0.00  0.00    +0.000 A 
ATOM     35  C52 UNK     0       4.155   0.448  -1.971  0.00  0.00    +0.000 A 
ATOM     36  C55 UNK     0       3.277   0.784  -3.007  0.00  0.00    +0.000 A 
ATOM     37  C57 UNK     0       2.342   1.806  -2.827  0.00  0.00    +0.000 A 
ATOM     38  C54 UNK     0       2.276   2.489  -1.612  0.00  0.00    +0.000 A 
ATOM     39  C51 UNK     0       3.149   2.151  -0.570  0.00  0.00    +0.000 A 
ENDBRANCH  33  34
BRANCH  33  40
ATOM     40  N15 UNK     0       6.421   1.001  -0.014  0.00  0.00    +0.000 N 
ATOM     41 3H10 UNK     0       6.769   0.523  -0.875  0.00  0.00    +0.000 HD
ATOM     42  C53 UNK     0       7.363   1.717   0.804  0.00  0.00    +0.000 C 
ATOM     43  O14 UNK     0       6.946   2.556   1.649  0.00  0.00    +0.000 OA
BRANCH  42  44
ATOM     44  C56 UNK     0       8.822   1.489   0.664  0.00  0.00    +0.000 A 
ATOM     45  C59 UNK     0       9.732   2.485   1.064  0.00  0.00    +0.000 A 
ATOM     46  C61 UNK     0      11.109   2.276   0.943  0.00  0.00    +0.000 A 
ATOM     47  C62 UNK     0      11.590   1.068   0.429  0.00  0.00    +0.000 A 
ATOM     48  C60 UNK     0      10.696   0.070   0.037  0.00  0.00    +0.000 A 
ATOM     49  C58 UNK     0       9.320   0.273   0.156  0.00  0.00    +0.000 A 
ENDBRANCH  42  44
ENDBRANCH  33  40
ENDBRANCH  30  33
ENDBRANCH  28  30
ENDBRANCH  27  28
ENDBRANCH  18  27
BRANCH  17  50
ATOM     50  O6  UNK     0      -1.598  -3.698   2.029  0.00  0.00    +0.000 OA
BRANCH  50  51
ATOM     51  C39 UNK     0      -2.204  -4.779   2.682  0.00  0.00    +0.000 C 
ATOM     52  C43 UNK     0      -2.101  -4.896   4.165  0.00  0.00    +0.000 C 
ATOM     53  O11 UNK     0      -2.857  -5.640   2.032  0.00  0.00    +0.000 OA
ENDBRANCH  50  51
ENDBRANCH  17  50
BRANCH   7  54
ATOM     54  O3  UNK     0      -2.512   1.182  -1.045  0.00  0.00    +0.000 OA
BRANCH  54  55
ATOM     55  C37 UNK     0      -1.851   2.385  -1.344  0.00  0.00    +0.000 C 
ATOM     56  O10 UNK     0      -1.153   2.964  -0.470  0.00  0.00    +0.000 OA
BRANCH  55  57
ATOM     57  C41 UNK     0      -2.015   2.987  -2.684  0.00  0.00    +0.000 A 
ATOM     58  C45 UNK     0      -2.679   2.281  -3.702  0.00  0.00    +0.000 A 
ATOM     59  C48 UNK     0      -2.876   2.872  -4.955  0.00  0.00    +0.000 A 
ATOM     60  C49 UNK     0      -2.429   4.175  -5.198  0.00  0.00    +0.000 A 
ATOM     61  C47 UNK     0      -1.760   4.880  -4.196  0.00  0.00    +0.000 A 
ATOM     62  C44 UNK     0      -1.549   4.291  -2.947  0.00  0.00    +0.000 A 
ENDBRANCH  55  57
ENDBRANCH  54  55
ENDBRANCH   7  54
BRANCH   4  63
ATOM     63  O2  UNK     0      -5.128   1.910   0.032  0.00  0.00    +0.000 OA
BRANCH  63  64
ATOM     64  C36 UNK     0      -5.762   1.788  -1.211  0.00  0.00    +0.000 C 
ATOM     65  O9  UNK     0      -6.354   0.722  -1.536  0.00  0.00    +0.000 OA
ATOM     66  C38 UNK     0      -5.781   2.953  -2.141  0.00  0.00    +0.000 C 
ENDBRANCH  63  64
ENDBRANCH   4  63
TORSDOF 17
