REMARK  Name = C:\Users\Maximilian\Desktop\Conformers\converted_pdb\conformers_pdb\Paclitaxel_conf_78.pdb
REMARK  23 active torsions:
REMARK  status: ('A' for Active; 'I' for Inactive)
REMARK    1  A    between atoms: C17_4  and  O2_61
REMARK    2  A    between atoms: C18_5  and  C29_16
REMARK    3  A    between atoms: C20_7  and  O3_52
REMARK    4  A    between atoms: C21_8  and  O4_46
REMARK    5  A    between atoms: C22_9  and  O5_65
REMARK    6  A    between atoms: C24_11  and  C33_20
REMARK    7  A    between atoms: C24_11  and  C34_21
REMARK    8  A    between atoms: C30_17  and  O6_48
REMARK    9  A    between atoms: C31_18  and  O8_23
REMARK   10  A    between atoms: C32_19  and  C35_22
REMARK   11  A    between atoms: O8_23  and  C40_24
REMARK   12  A    between atoms: C40_24  and  C42_26
REMARK   13  A    between atoms: C42_26  and  O13_27
REMARK   14  A    between atoms: C42_26  and  C46_29
REMARK   15  A    between atoms: C46_29  and  N15_30
REMARK   16  A    between atoms: C46_29  and  C50_40
REMARK   17  A    between atoms: C53_32  and  C56_34
REMARK   18  A    between atoms: O6_48  and  C39_49
REMARK   19  A    between atoms: C39_49  and  C43_50
REMARK   20  A    between atoms: O3_52  and  C37_53
REMARK   21  A    between atoms: C37_53  and  C41_55
REMARK   22  A    between atoms: O2_61  and  C36_62
REMARK   23  A    between atoms: C36_62  and  C38_64
REMARK                            x       y       z     vdW  Elec       q    Type
REMARK                         _______ _______ _______ _____ _____    ______ ____
ROOT
ATOM      1  O1  UNK     0      -3.923  -0.212   2.859  0.00  0.00    +0.000 OA
ATOM      2  O7  UNK     0       0.119   3.852   0.872  0.00  0.00    +0.000 OA
ATOM      3  C16 UNK     0      -1.973   0.953   0.243  0.00  0.00    +0.000 C 
ATOM      4  C17 UNK     0      -2.497  -0.141   1.277  0.00  0.00    +0.000 C 
ATOM      5  C18 UNK     0      -1.862   2.463   0.810  0.00  0.00    +0.000 C 
ATOM      6  C19 UNK     0      -2.570   0.168   2.774  0.00  0.00    +0.000 C 
ATOM      7  C20 UNK     0      -2.641   0.724  -1.209  0.00  0.00    +0.000 C 
ATOM      8  C21 UNK     0      -1.716   0.396  -2.479  0.00  0.00    +0.000 C 
ATOM      9  C22 UNK     0      -1.497   2.401   2.347  0.00  0.00    +0.000 C 
ATOM     10  C23 UNK     0      -2.486   1.627   3.188  0.00  0.00    +0.000 C 
ATOM     11  C24 UNK     0      -1.125   1.682  -3.136  0.00  0.00    +0.000 C 
ATOM     12  C25 UNK     0      -4.004  -0.341   1.464  0.00  0.00    +0.000 C 
ATOM     13  C26 UNK     0      -0.711   3.311   0.152  0.00  0.00    +0.000 C 
ATOM     14  C27 UNK     0      -0.562  -0.607  -2.121  0.00  0.00    +0.000 C 
ATOM     15  C28 UNK     0      -0.204   2.302  -2.079  0.00  0.00    +0.000 C 
ATOM     16  C29 UNK     0      -3.198   3.241   0.646  0.00  0.00    +0.000 C 
ATOM     17  C30 UNK     0      -0.514   3.596  -1.328  0.00  0.00    +0.000 C 
ATOM     18  C31 UNK     0       0.815   0.011  -1.732  0.00  0.00    +0.000 C 
ATOM     19  C32 UNK     0       0.838   1.532  -1.629  0.00  0.00    +0.000 C 
ATOM     20  C33 UNK     0      -2.248   2.605  -3.719  0.00  0.00    +0.000 C 
ATOM     21  C34 UNK     0      -0.270   1.347  -4.404  0.00  0.00    +0.000 C 
ATOM     22  C35 UNK     0       2.032   2.129  -0.909  0.00  0.00    +0.000 C 
ENDROOT
BRANCH   8  23
ATOM     23  O4  UNK     0      -2.522  -0.209  -3.475  0.00  0.00    +0.000 OA
ATOM     24  H84 UNK     0      -2.674  -1.164  -3.246  0.00  0.00    +0.000 HD
ENDBRANCH   8  23
BRANCH   9  25
ATOM     25  O5  UNK     0      -1.414   3.699   2.893  0.00  0.00    +0.000 OA
ATOM     26  H85 UNK     0      -0.805   3.650   3.677  0.00  0.00    +0.000 HD
ENDBRANCH   9  25
BRANCH  18  27
ATOM     27  O8  UNK     0       1.242  -0.525  -0.481  0.00  0.00    +0.000 OA
BRANCH  27  28
ATOM     28  C40 UNK     0       1.736  -1.822  -0.312  0.00  0.00    +0.000 C 
ATOM     29  O12 UNK     0       1.618  -2.684  -1.225  0.00  0.00    +0.000 OA
BRANCH  28  30
ATOM     30  C42 UNK     0       2.482  -2.154   0.947  0.00  0.00    +0.000 C 
BRANCH  30  31
ATOM     31  O13 UNK     0       1.715  -1.709   2.036  0.00  0.00    +0.000 OA
ATOM     32 1H10 UNK     0       1.897  -2.322   2.797  0.00  0.00    +0.000 HD
ENDBRANCH  30  31
BRANCH  30  33
ATOM     33  C46 UNK     0       3.859  -1.444   0.937  0.00  0.00    +0.000 C 
BRANCH  33  34
ATOM     34  C50 UNK     0       4.734  -1.977  -0.183  0.00  0.00    +0.000 A 
ATOM     35  C52 UNK     0       5.406  -3.208  -0.051  0.00  0.00    +0.000 A 
ATOM     36  C55 UNK     0       6.179  -3.707  -1.105  0.00  0.00    +0.000 A 
ATOM     37  C57 UNK     0       6.260  -3.005  -2.307  0.00  0.00    +0.000 A 
ATOM     38  C54 UNK     0       5.576  -1.798  -2.459  0.00  0.00    +0.000 A 
ATOM     39  C51 UNK     0       4.818  -1.285  -1.404  0.00  0.00    +0.000 A 
ENDBRANCH  33  34
BRANCH  33  40
ATOM     40  N15 UNK     0       4.551  -1.599   2.223  0.00  0.00    +0.000 N 
ATOM     41 3H10 UNK     0       4.272  -2.375   2.860  0.00  0.00    +0.000 HD
ATOM     42  C53 UNK     0       5.622  -0.720   2.608  0.00  0.00    +0.000 C 
ATOM     43  O14 UNK     0       5.785   0.370   1.988  0.00  0.00    +0.000 OA
BRANCH  42  44
ATOM     44  C56 UNK     0       6.533  -1.059   3.725  0.00  0.00    +0.000 A 
ATOM     45  C59 UNK     0       7.250  -0.040   4.380  0.00  0.00    +0.000 A 
ATOM     46  C61 UNK     0       8.124  -0.347   5.427  0.00  0.00    +0.000 A 
ATOM     47  C62 UNK     0       8.295  -1.672   5.830  0.00  0.00    +0.000 A 
ATOM     48  C60 UNK     0       7.598  -2.694   5.184  0.00  0.00    +0.000 A 
ATOM     49  C58 UNK     0       6.723  -2.394   4.135  0.00  0.00    +0.000 A 
ENDBRANCH  42  44
ENDBRANCH  33  40
ENDBRANCH  30  33
ENDBRANCH  28  30
ENDBRANCH  27  28
ENDBRANCH  18  27
BRANCH  17  50
ATOM     50  O6  UNK     0      -1.604   4.355  -1.837  0.00  0.00    +0.000 OA
BRANCH  50  51
ATOM     51  C39 UNK     0      -1.895   5.664  -1.447  0.00  0.00    +0.000 C 
ATOM     52  C43 UNK     0      -3.116   6.329  -1.984  0.00  0.00    +0.000 C 
ATOM     53  O11 UNK     0      -1.160   6.269  -0.621  0.00  0.00    +0.000 OA
ENDBRANCH  50  51
ENDBRANCH  17  50
BRANCH   7  54
ATOM     54  O3  UNK     0      -3.622  -0.319  -1.150  0.00  0.00    +0.000 OA
BRANCH  54  55
ATOM     55  C37 UNK     0      -4.880  -0.270  -1.775  0.00  0.00    +0.000 C 
ATOM     56  O10 UNK     0      -5.281   0.796  -2.317  0.00  0.00    +0.000 OA
BRANCH  55  57
ATOM     57  C41 UNK     0      -5.726  -1.480  -1.806  0.00  0.00    +0.000 A 
ATOM     58  C45 UNK     0      -7.036  -1.429  -2.319  0.00  0.00    +0.000 A 
ATOM     59  C48 UNK     0      -7.825  -2.583  -2.359  0.00  0.00    +0.000 A 
ATOM     60  C49 UNK     0      -7.316  -3.796  -1.890  0.00  0.00    +0.000 A 
ATOM     61  C47 UNK     0      -6.018  -3.858  -1.378  0.00  0.00    +0.000 A 
ATOM     62  C44 UNK     0      -5.226  -2.707  -1.336  0.00  0.00    +0.000 A 
ENDBRANCH  55  57
ENDBRANCH  54  55
ENDBRANCH   7  54
BRANCH   4  63
ATOM     63  O2  UNK     0      -1.828  -1.391   1.005  0.00  0.00    +0.000 OA
BRANCH  63  64
ATOM     64  C36 UNK     0      -2.024  -2.639   1.627  0.00  0.00    +0.000 C 
ATOM     65  O9  UNK     0      -2.777  -2.770   2.628  0.00  0.00    +0.000 OA
ATOM     66  C38 UNK     0      -1.362  -3.843   1.053  0.00  0.00    +0.000 C 
ENDBRANCH  63  64
ENDBRANCH   4  63
TORSDOF 17
