REMARK  Name = C:\Users\Maximilian\Desktop\Conformers\converted_pdb\conformers_pdb\Paclitaxel_conf_21.pdb
REMARK  23 active torsions:
REMARK  status: ('A' for Active; 'I' for Inactive)
REMARK    1  A    between atoms: C17_4  and  O2_61
REMARK    2  A    between atoms: C18_5  and  C29_16
REMARK    3  A    between atoms: C20_7  and  O3_52
REMARK    4  A    between atoms: C21_8  and  O4_46
REMARK    5  A    between atoms: C22_9  and  O5_65
REMARK    6  A    between atoms: C24_11  and  C33_20
REMARK    7  A    between atoms: C24_11  and  C34_21
REMARK    8  A    between atoms: C30_17  and  O6_48
REMARK    9  A    between atoms: C31_18  and  O8_23
REMARK   10  A    between atoms: C32_19  and  C35_22
REMARK   11  A    between atoms: O8_23  and  C40_24
REMARK   12  A    between atoms: C40_24  and  C42_26
REMARK   13  A    between atoms: C42_26  and  O13_27
REMARK   14  A    between atoms: C42_26  and  C46_29
REMARK   15  A    between atoms: C46_29  and  N15_30
REMARK   16  A    between atoms: C46_29  and  C50_40
REMARK   17  A    between atoms: C53_32  and  C56_34
REMARK   18  A    between atoms: O6_48  and  C39_49
REMARK   19  A    between atoms: C39_49  and  C43_50
REMARK   20  A    between atoms: O3_52  and  C37_53
REMARK   21  A    between atoms: C37_53  and  C41_55
REMARK   22  A    between atoms: O2_61  and  C36_62
REMARK   23  A    between atoms: C36_62  and  C38_64
REMARK                            x       y       z     vdW  Elec       q    Type
REMARK                         _______ _______ _______ _____ _____    ______ ____
ROOT
ATOM      1  O1  UNK     0      -6.681   1.712  -0.292  0.00  0.00    +0.000 OA
ATOM      2  O7  UNK     0      -1.564   0.523   2.372  0.00  0.00    +0.000 OA
ATOM      3  C16 UNK     0      -3.498   0.751  -0.275  0.00  0.00    +0.000 C 
ATOM      4  C17 UNK     0      -4.906   0.747  -0.949  0.00  0.00    +0.000 C 
ATOM      5  C18 UNK     0      -3.406   1.444   1.178  0.00  0.00    +0.000 C 
ATOM      6  C19 UNK     0      -6.049   0.492   0.046  0.00  0.00    +0.000 C 
ATOM      7  C20 UNK     0      -2.219   0.340  -1.156  0.00  0.00    +0.000 C 
ATOM      8  C21 UNK     0      -1.358   1.343  -2.063  0.00  0.00    +0.000 C 
ATOM      9  C22 UNK     0      -4.305   0.534   2.105  0.00  0.00    +0.000 C 
ATOM     10  C23 UNK     0      -5.780   0.413   1.590  0.00  0.00    +0.000 C 
ATOM     11  C24 UNK     0      -0.940   2.683  -1.374  0.00  0.00    +0.000 C 
ATOM     12  C25 UNK     0      -5.660   2.042  -1.211  0.00  0.00    +0.000 C 
ATOM     13  C26 UNK     0      -1.944   1.458   1.681  0.00  0.00    +0.000 C 
ATOM     14  C27 UNK     0      -0.046   0.610  -2.493  0.00  0.00    +0.000 C 
ATOM     15  C28 UNK     0      -0.268   2.268  -0.048  0.00  0.00    +0.000 C 
ATOM     16  C29 UNK     0      -3.999   2.882   1.376  0.00  0.00    +0.000 C 
ATOM     17  C30 UNK     0      -0.891   2.524   1.333  0.00  0.00    +0.000 C 
ATOM     18  C31 UNK     0       1.113   0.642  -1.441  0.00  0.00    +0.000 C 
ATOM     19  C32 UNK     0       0.800   1.405  -0.143  0.00  0.00    +0.000 C 
ATOM     20  C33 UNK     0      -2.164   3.621  -1.342  0.00  0.00    +0.000 C 
ATOM     21  C34 UNK     0       0.090   3.521  -2.204  0.00  0.00    +0.000 C 
ATOM     22  C35 UNK     0       1.822   1.306   0.971  0.00  0.00    +0.000 C 
ENDROOT
BRANCH   8  23
ATOM     23  O4  UNK     0      -2.098   1.654  -3.231  0.00  0.00    +0.000 OA
ATOM     24  H84 UNK     0      -2.185   0.833  -3.786  0.00  0.00    +0.000 HD
ENDBRANCH   8  23
BRANCH   9  25
ATOM     25  O5  UNK     0      -4.254   0.931   3.458  0.00  0.00    +0.000 OA
ATOM     26  H85 UNK     0      -4.894   1.677   3.601  0.00  0.00    +0.000 HD
ENDBRANCH   9  25
BRANCH  18  27
ATOM     27  O8  UNK     0       1.517  -0.697  -1.130  0.00  0.00    +0.000 OA
BRANCH  27  28
ATOM     28  C40 UNK     0       2.178  -1.525  -2.052  0.00  0.00    +0.000 C 
ATOM     29  O12 UNK     0       2.323  -1.163  -3.251  0.00  0.00    +0.000 OA
BRANCH  28  30
ATOM     30  C42 UNK     0       2.784  -2.826  -1.606  0.00  0.00    +0.000 C 
BRANCH  30  31
ATOM     31  O13 UNK     0       2.027  -3.356  -0.553  0.00  0.00    +0.000 OA
ATOM     32 1H10 UNK     0       2.089  -4.345  -0.618  0.00  0.00    +0.000 HD
ENDBRANCH  30  31
BRANCH  30  33
ATOM     33  C46 UNK     0       4.254  -2.608  -1.180  0.00  0.00    +0.000 C 
BRANCH  33  34
ATOM     34  C50 UNK     0       4.918  -3.921  -0.816  0.00  0.00    +0.000 A 
ATOM     35  C52 UNK     0       4.809  -4.464   0.478  0.00  0.00    +0.000 A 
ATOM     36  C55 UNK     0       5.403  -5.692   0.784  0.00  0.00    +0.000 A 
ATOM     37  C57 UNK     0       6.104  -6.394  -0.200  0.00  0.00    +0.000 A 
ATOM     38  C54 UNK     0       6.205  -5.873  -1.492  0.00  0.00    +0.000 A 
ATOM     39  C51 UNK     0       5.612  -4.646  -1.802  0.00  0.00    +0.000 A 
ENDBRANCH  33  34
BRANCH  33  40
ATOM     40  N15 UNK     0       4.346  -1.648  -0.070  0.00  0.00    +0.000 N 
ATOM     41 3H10 UNK     0       3.624  -1.691   0.681  0.00  0.00    +0.000 HD
ATOM     42  C53 UNK     0       5.385  -0.656   0.013  0.00  0.00    +0.000 C 
ATOM     43  O14 UNK     0       6.199  -0.523  -0.947  0.00  0.00    +0.000 OA
BRANCH  42  44
ATOM     44  C56 UNK     0       5.496   0.246   1.184  0.00  0.00    +0.000 A 
ATOM     45  C59 UNK     0       6.108   1.506   1.042  0.00  0.00    +0.000 A 
ATOM     46  C61 UNK     0       6.213   2.373   2.134  0.00  0.00    +0.000 A 
ATOM     47  C62 UNK     0       5.715   1.992   3.382  0.00  0.00    +0.000 A 
ATOM     48  C60 UNK     0       5.112   0.743   3.541  0.00  0.00    +0.000 A 
ATOM     49  C58 UNK     0       5.008  -0.131   2.451  0.00  0.00    +0.000 A 
ENDBRANCH  42  44
ENDBRANCH  33  40
ENDBRANCH  30  33
ENDBRANCH  28  30
ENDBRANCH  27  28
ENDBRANCH  18  27
BRANCH  17  50
ATOM     50  O6  UNK     0      -1.374   3.854   1.486  0.00  0.00    +0.000 OA
BRANCH  50  51
ATOM     51  C39 UNK     0      -0.546   4.985   1.483  0.00  0.00    +0.000 C 
ATOM     52  C43 UNK     0      -1.161   6.337   1.617  0.00  0.00    +0.000 C 
ATOM     53  O11 UNK     0       0.708   4.875   1.386  0.00  0.00    +0.000 OA
ENDBRANCH  50  51
ENDBRANCH  17  50
BRANCH   7  54
ATOM     54  O3  UNK     0      -1.363  -0.519  -0.369  0.00  0.00    +0.000 OA
BRANCH  54  55
ATOM     55  C37 UNK     0      -1.585  -1.905  -0.220  0.00  0.00    +0.000 C 
ATOM     56  O10 UNK     0      -2.486  -2.475  -0.895  0.00  0.00    +0.000 OA
BRANCH  55  57
ATOM     57  C41 UNK     0      -0.761  -2.708   0.713  0.00  0.00    +0.000 A 
ATOM     58  C45 UNK     0      -0.919  -4.107   0.789  0.00  0.00    +0.000 A 
ATOM     59  C48 UNK     0      -0.131  -4.863   1.662  0.00  0.00    +0.000 A 
ATOM     60  C49 UNK     0       0.814  -4.233   2.474  0.00  0.00    +0.000 A 
ATOM     61  C47 UNK     0       0.973  -2.847   2.413  0.00  0.00    +0.000 A 
ATOM     62  C44 UNK     0       0.185  -2.089   1.542  0.00  0.00    +0.000 A 
ENDBRANCH  55  57
ENDBRANCH  54  55
ENDBRANCH   7  54
BRANCH   4  63
ATOM     63  O2  UNK     0      -4.936  -0.155  -2.074  0.00  0.00    +0.000 OA
BRANCH  63  64
ATOM     64  C36 UNK     0      -6.024  -0.492  -2.900  0.00  0.00    +0.000 C 
ATOM     65  O9  UNK     0      -7.179  -0.031  -2.699  0.00  0.00    +0.000 OA
ATOM     66  C38 UNK     0      -5.802  -1.417  -4.048  0.00  0.00    +0.000 C 
ENDBRANCH  63  64
ENDBRANCH   4  63
TORSDOF 17
