REMARK  Name = C:\Users\Maximilian\Desktop\Conformers\converted_pdb\conformers_pdb\Paclitaxel_conf_70.pdb
REMARK  23 active torsions:
REMARK  status: ('A' for Active; 'I' for Inactive)
REMARK    1  A    between atoms: C17_4  and  O2_61
REMARK    2  A    between atoms: C18_5  and  C29_16
REMARK    3  A    between atoms: C20_7  and  O3_52
REMARK    4  A    between atoms: C21_8  and  O4_46
REMARK    5  A    between atoms: C22_9  and  O5_65
REMARK    6  A    between atoms: C24_11  and  C33_20
REMARK    7  A    between atoms: C24_11  and  C34_21
REMARK    8  A    between atoms: C30_17  and  O6_48
REMARK    9  A    between atoms: C31_18  and  O8_23
REMARK   10  A    between atoms: C32_19  and  C35_22
REMARK   11  A    between atoms: O8_23  and  C40_24
REMARK   12  A    between atoms: C40_24  and  C42_26
REMARK   13  A    between atoms: C42_26  and  O13_27
REMARK   14  A    between atoms: C42_26  and  C46_29
REMARK   15  A    between atoms: C46_29  and  N15_30
REMARK   16  A    between atoms: C46_29  and  C50_40
REMARK   17  A    between atoms: C53_32  and  C56_34
REMARK   18  A    between atoms: O6_48  and  C39_49
REMARK   19  A    between atoms: C39_49  and  C43_50
REMARK   20  A    between atoms: O3_52  and  C37_53
REMARK   21  A    between atoms: C37_53  and  C41_55
REMARK   22  A    between atoms: O2_61  and  C36_62
REMARK   23  A    between atoms: C36_62  and  C38_64
REMARK                            x       y       z     vdW  Elec       q    Type
REMARK                         _______ _______ _______ _____ _____    ______ ____
ROOT
ATOM      1  O1  UNK     0      -5.098   2.344   0.839  0.00  0.00    +0.000 OA
ATOM      2  O7  UNK     0      -2.085   0.421  -4.046  0.00  0.00    +0.000 OA
ATOM      3  C16 UNK     0      -2.655   0.238  -0.452  0.00  0.00    +0.000 C 
ATOM      4  C17 UNK     0      -3.207   1.420   0.479  0.00  0.00    +0.000 C 
ATOM      5  C18 UNK     0      -3.279   0.182  -1.951  0.00  0.00    +0.000 C 
ATOM      6  C19 UNK     0      -4.073   2.547  -0.097  0.00  0.00    +0.000 C 
ATOM      7  C20 UNK     0      -2.523  -1.137   0.398  0.00  0.00    +0.000 C 
ATOM      8  C21 UNK     0      -1.099  -1.865   0.517  0.00  0.00    +0.000 C 
ATOM      9  C22 UNK     0      -3.698   1.643  -2.395  0.00  0.00    +0.000 C 
ATOM     10  C23 UNK     0      -4.677   2.315  -1.465  0.00  0.00    +0.000 C 
ATOM     11  C24 UNK     0      -0.747  -2.713  -0.754  0.00  0.00    +0.000 C 
ATOM     12  C25 UNK     0      -4.471   1.186   1.316  0.00  0.00    +0.000 C 
ATOM     13  C26 UNK     0      -2.264  -0.289  -3.056  0.00  0.00    +0.000 C 
ATOM     14  C27 UNK     0       0.043  -0.819   0.837  0.00  0.00    +0.000 C 
ATOM     15  C28 UNK     0      -0.565  -1.687  -1.890  0.00  0.00    +0.000 C 
ATOM     16  C29 UNK     0      -4.530  -0.730  -2.007  0.00  0.00    +0.000 C 
ATOM     17  C30 UNK     0      -1.487  -1.587  -3.094  0.00  0.00    +0.000 C 
ATOM     18  C31 UNK     0       1.008  -0.485  -0.335  0.00  0.00    +0.000 C 
ATOM     19  C32 UNK     0       0.372  -0.694  -1.705  0.00  0.00    +0.000 C 
ATOM     20  C33 UNK     0      -1.804  -3.844  -0.982  0.00  0.00    +0.000 C 
ATOM     21  C34 UNK     0       0.603  -3.498  -0.557  0.00  0.00    +0.000 C 
ATOM     22  C35 UNK     0       0.812   0.232  -2.831  0.00  0.00    +0.000 C 
ENDROOT
BRANCH   8  23
ATOM     23  O4  UNK     0      -1.156  -2.794   1.585  0.00  0.00    +0.000 OA
ATOM     24  H84 UNK     0      -1.089  -2.317   2.455  0.00  0.00    +0.000 HD
ENDBRANCH   8  23
BRANCH   9  25
ATOM     25  O5  UNK     0      -4.291   1.634  -3.676  0.00  0.00    +0.000 OA
ATOM     26  H85 UNK     0      -4.070   2.497  -4.112  0.00  0.00    +0.000 HD
ENDBRANCH   9  25
BRANCH  18  27
ATOM     27  O8  UNK     0       1.476   0.861  -0.202  0.00  0.00    +0.000 OA
BRANCH  27  28
ATOM     28  C40 UNK     0       2.400   1.266   0.771  0.00  0.00    +0.000 C 
ATOM     29  O12 UNK     0       2.637   0.534   1.773  0.00  0.00    +0.000 OA
BRANCH  28  30
ATOM     30  C42 UNK     0       3.124   2.575   0.593  0.00  0.00    +0.000 C 
BRANCH  30  31
ATOM     31  O13 UNK     0       2.347   3.430  -0.214  0.00  0.00    +0.000 OA
ATOM     32 1H10 UNK     0       2.673   4.353  -0.035  0.00  0.00    +0.000 HD
ENDBRANCH  30  31
BRANCH  30  33
ATOM     33  C46 UNK     0       4.539   2.394  -0.017  0.00  0.00    +0.000 C 
BRANCH  33  34
ATOM     34  C50 UNK     0       4.511   1.700  -1.370  0.00  0.00    +0.000 A 
ATOM     35  C52 UNK     0       4.535   0.296  -1.485  0.00  0.00    +0.000 A 
ATOM     36  C55 UNK     0       4.481  -0.310  -2.744  0.00  0.00    +0.000 A 
ATOM     37  C57 UNK     0       4.409   0.470  -3.901  0.00  0.00    +0.000 A 
ATOM     38  C54 UNK     0       4.400   1.863  -3.802  0.00  0.00    +0.000 A 
ATOM     39  C51 UNK     0       4.433   2.475  -2.545  0.00  0.00    +0.000 A 
ENDBRANCH  33  34
BRANCH  33  40
ATOM     40  N15 UNK     0       5.437   1.689   0.912  0.00  0.00    +0.000 N 
ATOM     41 3H10 UNK     0       5.131   0.775   1.321  0.00  0.00    +0.000 HD
ATOM     42  C53 UNK     0       6.756   2.186   1.240  0.00  0.00    +0.000 C 
ATOM     43  O14 UNK     0       7.002   3.426   1.135  0.00  0.00    +0.000 OA
BRANCH  42  44
ATOM     44  C56 UNK     0       7.824   1.276   1.750  0.00  0.00    +0.000 A 
ATOM     45  C59 UNK     0       9.006   1.819   2.297  0.00  0.00    +0.000 A 
ATOM     46  C61 UNK     0      10.032   0.986   2.753  0.00  0.00    +0.000 A 
ATOM     47  C62 UNK     0       9.886  -0.399   2.685  0.00  0.00    +0.000 A 
ATOM     48  C60 UNK     0       8.728  -0.956   2.133  0.00  0.00    +0.000 A 
ATOM     49  C58 UNK     0       7.700  -0.127   1.672  0.00  0.00    +0.000 A 
ENDBRANCH  42  44
ENDBRANCH  33  40
ENDBRANCH  30  33
ENDBRANCH  28  30
ENDBRANCH  27  28
ENDBRANCH  18  27
BRANCH  17  50
ATOM     50  O6  UNK     0      -2.366  -2.690  -3.288  0.00  0.00    +0.000 OA
BRANCH  50  51
ATOM     51  C39 UNK     0      -3.099  -2.908  -4.466  0.00  0.00    +0.000 C 
ATOM     52  C43 UNK     0      -4.010  -4.084  -4.558  0.00  0.00    +0.000 C 
ATOM     53  O11 UNK     0      -3.002  -2.125  -5.446  0.00  0.00    +0.000 OA
ENDBRANCH  50  51
ENDBRANCH  17  50
BRANCH   7  54
ATOM     54  O3  UNK     0      -2.974  -0.922   1.743  0.00  0.00    +0.000 OA
BRANCH  54  55
ATOM     55  C37 UNK     0      -3.766  -1.826   2.466  0.00  0.00    +0.000 C 
ATOM     56  O10 UNK     0      -4.034  -2.958   2.001  0.00  0.00    +0.000 OA
BRANCH  55  57
ATOM     57  C41 UNK     0      -4.292  -1.433   3.789  0.00  0.00    +0.000 A 
ATOM     58  C45 UNK     0      -5.427  -2.078   4.317  0.00  0.00    +0.000 A 
ATOM     59  C48 UNK     0      -5.950  -1.684   5.555  0.00  0.00    +0.000 A 
ATOM     60  C49 UNK     0      -5.316  -0.681   6.297  0.00  0.00    +0.000 A 
ATOM     61  C47 UNK     0      -4.172  -0.057   5.788  0.00  0.00    +0.000 A 
ATOM     62  C44 UNK     0      -3.671  -0.416   4.533  0.00  0.00    +0.000 A 
ENDBRANCH  55  57
ENDBRANCH  54  55
ENDBRANCH   7  54
BRANCH   4  63
ATOM     63  O2  UNK     0      -2.112   1.920   1.267  0.00  0.00    +0.000 OA
BRANCH  63  64
ATOM     64  C36 UNK     0      -2.087   3.025   2.130  0.00  0.00    +0.000 C 
ATOM     65  O9  UNK     0      -3.144   3.506   2.621  0.00  0.00    +0.000 OA
ATOM     66  C38 UNK     0      -0.754   3.600   2.511  0.00  0.00    +0.000 C 
ENDBRANCH  63  64
ENDBRANCH   4  63
TORSDOF 17
