REMARK  Name = C:\Users\Maximilian\Desktop\Conformers\converted_pdb\conformers_pdb\Paclitaxel_conf_13.pdb
REMARK  23 active torsions:
REMARK  status: ('A' for Active; 'I' for Inactive)
REMARK    1  A    between atoms: C17_4  and  O2_61
REMARK    2  A    between atoms: C18_5  and  C29_16
REMARK    3  A    between atoms: C20_7  and  O3_52
REMARK    4  A    between atoms: C21_8  and  O4_46
REMARK    5  A    between atoms: C22_9  and  O5_65
REMARK    6  A    between atoms: C24_11  and  C33_20
REMARK    7  A    between atoms: C24_11  and  C34_21
REMARK    8  A    between atoms: C30_17  and  O6_48
REMARK    9  A    between atoms: C31_18  and  O8_23
REMARK   10  A    between atoms: C32_19  and  C35_22
REMARK   11  A    between atoms: O8_23  and  C40_24
REMARK   12  A    between atoms: C40_24  and  C42_26
REMARK   13  A    between atoms: C42_26  and  O13_27
REMARK   14  A    between atoms: C42_26  and  C46_29
REMARK   15  A    between atoms: C46_29  and  N15_30
REMARK   16  A    between atoms: C46_29  and  C50_40
REMARK   17  A    between atoms: C53_32  and  C56_34
REMARK   18  A    between atoms: O6_48  and  C39_49
REMARK   19  A    between atoms: C39_49  and  C43_50
REMARK   20  A    between atoms: O3_52  and  C37_53
REMARK   21  A    between atoms: C37_53  and  C41_55
REMARK   22  A    between atoms: O2_61  and  C36_62
REMARK   23  A    between atoms: C36_62  and  C38_64
REMARK                            x       y       z     vdW  Elec       q    Type
REMARK                         _______ _______ _______ _____ _____    ______ ____
ROOT
ATOM      1  O1  UNK     0      -5.563  -0.255   1.670  0.00  0.00    +0.000 OA
ATOM      2  O7  UNK     0      -3.634   3.051  -2.839  0.00  0.00    +0.000 OA
ATOM      3  C16 UNK     0      -2.972   0.445  -0.336  0.00  0.00    +0.000 C 
ATOM      4  C17 UNK     0      -3.550  -0.202   0.987  0.00  0.00    +0.000 C 
ATOM      5  C18 UNK     0      -3.763   1.739  -0.834  0.00  0.00    +0.000 C 
ATOM      6  C19 UNK     0      -4.481   0.625   1.885  0.00  0.00    +0.000 C 
ATOM      7  C20 UNK     0      -2.596  -0.649  -1.442  0.00  0.00    +0.000 C 
ATOM      8  C21 UNK     0      -1.112  -0.639  -2.045  0.00  0.00    +0.000 C 
ATOM      9  C22 UNK     0      -3.953   2.673   0.399  0.00  0.00    +0.000 C 
ATOM     10  C23 UNK     0      -4.853   2.061   1.481  0.00  0.00    +0.000 C 
ATOM     11  C24 UNK     0      -0.707   0.682  -2.826  0.00  0.00    +0.000 C 
ATOM     12  C25 UNK     0      -4.786  -1.079   0.833  0.00  0.00    +0.000 C 
ATOM     13  C26 UNK     0      -3.003   2.573  -1.902  0.00  0.00    +0.000 C 
ATOM     14  C27 UNK     0      -0.083  -0.931  -0.883  0.00  0.00    +0.000 C 
ATOM     15  C28 UNK     0      -0.606   1.792  -1.749  0.00  0.00    +0.000 C 
ATOM     16  C29 UNK     0      -5.162   1.377  -1.429  0.00  0.00    +0.000 C 
ATOM     17  C30 UNK     0      -1.544   2.994  -1.772  0.00  0.00    +0.000 C 
ATOM     18  C31 UNK     0       0.900   0.218  -0.534  0.00  0.00    +0.000 C 
ATOM     19  C32 UNK     0       0.238   1.581  -0.686  0.00  0.00    +0.000 C 
ATOM     20  C33 UNK     0      -1.702   0.974  -4.003  0.00  0.00    +0.000 C 
ATOM     21  C34 UNK     0       0.693   0.536  -3.530  0.00  0.00    +0.000 C 
ATOM     22  C35 UNK     0       0.489   2.649   0.364  0.00  0.00    +0.000 C 
ENDROOT
BRANCH   8  23
ATOM     23  O4  UNK     0      -1.005  -1.726  -2.944  0.00  0.00    +0.000 OA
ATOM     24  H84 UNK     0      -1.746  -1.678  -3.603  0.00  0.00    +0.000 HD
ENDBRANCH   8  23
BRANCH   9  25
ATOM     25  O5  UNK     0      -4.498   3.908   0.001  0.00  0.00    +0.000 OA
ATOM     26  H85 UNK     0      -4.313   4.555   0.733  0.00  0.00    +0.000 HD
ENDBRANCH   9  25
BRANCH  18  27
ATOM     27  O8  UNK     0       1.387   0.033   0.796  0.00  0.00    +0.000 OA
BRANCH  27  28
ATOM     28  C40 UNK     0       2.362  -0.913   1.138  0.00  0.00    +0.000 C 
ATOM     29  O12 UNK     0       2.752  -1.768   0.299  0.00  0.00    +0.000 OA
BRANCH  28  30
ATOM     30  C42 UNK     0       2.991  -0.864   2.500  0.00  0.00    +0.000 C 
BRANCH  30  31
ATOM     31  O13 UNK     0       2.083  -0.290   3.405  0.00  0.00    +0.000 OA
ATOM     32 1H10 UNK     0       2.373  -0.559   4.316  0.00  0.00    +0.000 HD
ENDBRANCH  30  31
BRANCH  30  33
ATOM     33  C46 UNK     0       4.320  -0.066   2.507  0.00  0.00    +0.000 C 
BRANCH  33  34
ATOM     34  C50 UNK     0       4.148   1.366   2.017  0.00  0.00    +0.000 A 
ATOM     35  C52 UNK     0       4.165   1.700   0.644  0.00  0.00    +0.000 A 
ATOM     36  C55 UNK     0       4.003   3.027   0.237  0.00  0.00    +0.000 A 
ATOM     37  C57 UNK     0       3.788   4.034   1.179  0.00  0.00    +0.000 A 
ATOM     38  C54 UNK     0       3.735   3.711   2.537  0.00  0.00    +0.000 A 
ATOM     39  C51 UNK     0       3.910   2.389   2.953  0.00  0.00    +0.000 A 
ENDBRANCH  33  34
BRANCH  33  40
ATOM     40  N15 UNK     0       5.361  -0.779   1.748  0.00  0.00    +0.000 N 
ATOM     41 3H10 UNK     0       5.298  -0.796   0.709  0.00  0.00    +0.000 HD
ATOM     42  C53 UNK     0       6.415  -1.529   2.385  0.00  0.00    +0.000 C 
ATOM     43  O14 UNK     0       6.420  -1.659   3.640  0.00  0.00    +0.000 OA
BRANCH  42  44
ATOM     44  C56 UNK     0       7.525  -2.124   1.598  0.00  0.00    +0.000 A 
ATOM     45  C59 UNK     0       8.780  -2.320   2.206  0.00  0.00    +0.000 A 
ATOM     46  C61 UNK     0       9.848  -2.853   1.477  0.00  0.00    +0.000 A 
ATOM     47  C62 UNK     0       9.676  -3.203   0.136  0.00  0.00    +0.000 A 
ATOM     48  C60 UNK     0       8.432  -3.033  -0.473  0.00  0.00    +0.000 A 
ATOM     49  C58 UNK     0       7.359  -2.502   0.250  0.00  0.00    +0.000 A 
ENDBRANCH  42  44
ENDBRANCH  33  40
ENDBRANCH  30  33
ENDBRANCH  28  30
ENDBRANCH  27  28
ENDBRANCH  18  27
BRANCH  17  50
ATOM     50  O6  UNK     0      -1.145   3.850  -2.845  0.00  0.00    +0.000 OA
BRANCH  50  51
ATOM     51  C39 UNK     0      -1.544   5.185  -2.967  0.00  0.00    +0.000 C 
ATOM     52  C43 UNK     0      -1.115   5.975  -4.158  0.00  0.00    +0.000 C 
ATOM     53  O11 UNK     0      -2.245   5.734  -2.074  0.00  0.00    +0.000 OA
ENDBRANCH  50  51
ENDBRANCH  17  50
BRANCH   7  54
ATOM     54  O3  UNK     0      -2.794  -1.958  -0.895  0.00  0.00    +0.000 OA
BRANCH  54  55
ATOM     55  C37 UNK     0      -3.482  -3.007  -1.519  0.00  0.00    +0.000 C 
ATOM     56  O10 UNK     0      -3.957  -2.867  -2.678  0.00  0.00    +0.000 OA
BRANCH  55  57
ATOM     57  C41 UNK     0      -3.689  -4.265  -0.776  0.00  0.00    +0.000 A 
ATOM     58  C45 UNK     0      -4.598  -5.234  -1.238  0.00  0.00    +0.000 A 
ATOM     59  C48 UNK     0      -4.814  -6.405  -0.503  0.00  0.00    +0.000 A 
ATOM     60  C49 UNK     0      -4.120  -6.625   0.689  0.00  0.00    +0.000 A 
ATOM     61  C47 UNK     0      -3.216  -5.669   1.159  0.00  0.00    +0.000 A 
ATOM     62  C44 UNK     0      -2.999  -4.494   0.429  0.00  0.00    +0.000 A 
ENDBRANCH  55  57
ENDBRANCH  54  55
ENDBRANCH   7  54
BRANCH   4  63
ATOM     63  O2  UNK     0      -2.486  -0.835   1.723  0.00  0.00    +0.000 OA
BRANCH  63  64
ATOM     64  C36 UNK     0      -2.550  -1.449   2.985  0.00  0.00    +0.000 C 
ATOM     65  O9  UNK     0      -3.640  -1.875   3.458  0.00  0.00    +0.000 OA
ATOM     66  C38 UNK     0      -1.294  -1.607   3.771  0.00  0.00    +0.000 C 
ENDBRANCH  63  64
ENDBRANCH   4  63
TORSDOF 17
