REMARK  Name = C:\Users\Maximilian\Desktop\Conformers\converted_pdb\conformers_pdb\Paclitaxel_conf_79.pdb
REMARK  23 active torsions:
REMARK  status: ('A' for Active; 'I' for Inactive)
REMARK    1  A    between atoms: C17_4  and  O2_61
REMARK    2  A    between atoms: C18_5  and  C29_16
REMARK    3  A    between atoms: C20_7  and  O3_52
REMARK    4  A    between atoms: C21_8  and  O4_46
REMARK    5  A    between atoms: C22_9  and  O5_65
REMARK    6  A    between atoms: C24_11  and  C33_20
REMARK    7  A    between atoms: C24_11  and  C34_21
REMARK    8  A    between atoms: C30_17  and  O6_48
REMARK    9  A    between atoms: C31_18  and  O8_23
REMARK   10  A    between atoms: C32_19  and  C35_22
REMARK   11  A    between atoms: O8_23  and  C40_24
REMARK   12  A    between atoms: C40_24  and  C42_26
REMARK   13  A    between atoms: C42_26  and  O13_27
REMARK   14  A    between atoms: C42_26  and  C46_29
REMARK   15  A    between atoms: C46_29  and  N15_30
REMARK   16  A    between atoms: C46_29  and  C50_40
REMARK   17  A    between atoms: C53_32  and  C56_34
REMARK   18  A    between atoms: O6_48  and  C39_49
REMARK   19  A    between atoms: C39_49  and  C43_50
REMARK   20  A    between atoms: O3_52  and  C37_53
REMARK   21  A    between atoms: C37_53  and  C41_55
REMARK   22  A    between atoms: O2_61  and  C36_62
REMARK   23  A    between atoms: C36_62  and  C38_64
REMARK                            x       y       z     vdW  Elec       q    Type
REMARK                         _______ _______ _______ _____ _____    ______ ____
ROOT
ATOM      1  O1  UNK     0      -3.648   1.674   2.632  0.00  0.00    +0.000 OA
ATOM      2  O7  UNK     0      -0.882   3.831  -1.433  0.00  0.00    +0.000 OA
ATOM      3  C16 UNK     0      -2.299   0.802  -0.311  0.00  0.00    +0.000 C 
ATOM      4  C17 UNK     0      -2.526   0.547   1.232  0.00  0.00    +0.000 C 
ATOM      5  C18 UNK     0      -2.650   2.288  -0.871  0.00  0.00    +0.000 C 
ATOM      6  C19 UNK     0      -2.308   1.713   2.177  0.00  0.00    +0.000 C 
ATOM      7  C20 UNK     0      -2.802  -0.447  -1.178  0.00  0.00    +0.000 C 
ATOM      8  C21 UNK     0      -1.745  -1.294  -2.026  0.00  0.00    +0.000 C 
ATOM      9  C22 UNK     0      -2.873   3.329   0.312  0.00  0.00    +0.000 C 
ATOM     10  C23 UNK     0      -1.968   3.042   1.507  0.00  0.00    +0.000 C 
ATOM     11  C24 UNK     0      -1.256  -0.540  -3.322  0.00  0.00    +0.000 C 
ATOM     12  C25 UNK     0      -3.955   0.618   1.745  0.00  0.00    +0.000 C 
ATOM     13  C26 UNK     0      -1.474   2.812  -1.766  0.00  0.00    +0.000 C 
ATOM     14  C27 UNK     0      -0.516  -1.714  -1.155  0.00  0.00    +0.000 C 
ATOM     15  C28 UNK     0      -0.505   0.718  -2.837  0.00  0.00    +0.000 C 
ATOM     16  C29 UNK     0      -3.951   2.360  -1.720  0.00  0.00    +0.000 C 
ATOM     17  C30 UNK     0      -0.969   2.168  -3.061  0.00  0.00    +0.000 C 
ATOM     18  C31 UNK     0       0.733  -0.780  -1.203  0.00  0.00    +0.000 C 
ATOM     19  C32 UNK     0       0.563   0.515  -1.998  0.00  0.00    +0.000 C 
ATOM     20  C33 UNK     0      -2.439  -0.320  -4.309  0.00  0.00    +0.000 C 
ATOM     21  C34 UNK     0      -0.248  -1.384  -4.174  0.00  0.00    +0.000 C 
ATOM     22  C35 UNK     0       1.610   1.588  -1.773  0.00  0.00    +0.000 C 
ENDROOT
BRANCH   8  23
ATOM     23  O4  UNK     0      -2.427  -2.473  -2.415  0.00  0.00    +0.000 OA
ATOM     24  H84 UNK     0      -1.803  -3.086  -2.878  0.00  0.00    +0.000 HD
ENDBRANCH   8  23
BRANCH   9  25
ATOM     25  O5  UNK     0      -4.220   3.374   0.745  0.00  0.00    +0.000 OA
ATOM     26  H85 UNK     0      -4.616   4.236   0.455  0.00  0.00    +0.000 HD
ENDBRANCH   9  25
BRANCH  18  27
ATOM     27  O8  UNK     0       1.124  -0.444   0.130  0.00  0.00    +0.000 OA
BRANCH  27  28
ATOM     28  C40 UNK     0       1.785  -1.332   0.987  0.00  0.00    +0.000 C 
ATOM     29  O12 UNK     0       1.746  -2.572   0.781  0.00  0.00    +0.000 OA
BRANCH  28  30
ATOM     30  C42 UNK     0       2.628  -0.781   2.108  0.00  0.00    +0.000 C 
BRANCH  30  31
ATOM     31  O13 UNK     0       1.879   0.142   2.865  0.00  0.00    +0.000 OA
ATOM     32 1H10 UNK     0       1.710   0.936   2.288  0.00  0.00    +0.000 HD
ENDBRANCH  30  31
BRANCH  30  33
ATOM     33  C46 UNK     0       3.914  -0.130   1.537  0.00  0.00    +0.000 C 
BRANCH  33  34
ATOM     34  C50 UNK     0       4.776  -1.168   0.838  0.00  0.00    +0.000 A 
ATOM     35  C52 UNK     0       5.559  -2.075   1.581  0.00  0.00    +0.000 A 
ATOM     36  C55 UNK     0       6.324  -3.046   0.926  0.00  0.00    +0.000 A 
ATOM     37  C57 UNK     0       6.311  -3.124  -0.470  0.00  0.00    +0.000 A 
ATOM     38  C54 UNK     0       5.531  -2.235  -1.213  0.00  0.00    +0.000 A 
ATOM     39  C51 UNK     0       4.762  -1.266  -0.565  0.00  0.00    +0.000 A 
ENDBRANCH  33  34
BRANCH  33  40
ATOM     40  N15 UNK     0       4.692   0.528   2.591  0.00  0.00    +0.000 N 
ATOM     41 3H10 UNK     0       4.533   0.253   3.589  0.00  0.00    +0.000 HD
ATOM     42  C53 UNK     0       5.731   1.470   2.270  0.00  0.00    +0.000 C 
ATOM     43  O14 UNK     0       5.772   1.981   1.114  0.00  0.00    +0.000 OA
BRANCH  42  44
ATOM     44  C56 UNK     0       6.739   1.885   3.274  0.00  0.00    +0.000 A 
ATOM     45  C59 UNK     0       7.043   1.077   4.387  0.00  0.00    +0.000 A 
ATOM     46  C61 UNK     0       8.004   1.490   5.320  0.00  0.00    +0.000 A 
ATOM     47  C62 UNK     0       8.673   2.704   5.151  0.00  0.00    +0.000 A 
ATOM     48  C60 UNK     0       8.393   3.505   4.041  0.00  0.00    +0.000 A 
ATOM     49  C58 UNK     0       7.429   3.101   3.109  0.00  0.00    +0.000 A 
ENDBRANCH  42  44
ENDBRANCH  33  40
ENDBRANCH  30  33
ENDBRANCH  28  30
ENDBRANCH  27  28
ENDBRANCH  18  27
BRANCH  17  50
ATOM     50  O6  UNK     0      -1.919   2.362  -4.107  0.00  0.00    +0.000 OA
BRANCH  50  51
ATOM     51  C39 UNK     0      -1.570   2.590  -5.446  0.00  0.00    +0.000 C 
ATOM     52  C43 UNK     0      -2.644   2.877  -6.439  0.00  0.00    +0.000 C 
ATOM     53  O11 UNK     0      -0.366   2.557  -5.816  0.00  0.00    +0.000 OA
ENDBRANCH  50  51
ENDBRANCH  17  50
BRANCH   7  54
ATOM     54  O3  UNK     0      -3.524  -1.359  -0.334  0.00  0.00    +0.000 OA
BRANCH  54  55
ATOM     55  C37 UNK     0      -4.731  -1.989  -0.685  0.00  0.00    +0.000 C 
ATOM     56  O10 UNK     0      -5.240  -1.800  -1.825  0.00  0.00    +0.000 OA
BRANCH  55  57
ATOM     57  C41 UNK     0      -5.410  -2.868   0.293  0.00  0.00    +0.000 A 
ATOM     58  C45 UNK     0      -4.776  -3.205   1.501  0.00  0.00    +0.000 A 
ATOM     59  C48 UNK     0      -5.428  -4.009   2.442  0.00  0.00    +0.000 A 
ATOM     60  C49 UNK     0      -6.714  -4.487   2.183  0.00  0.00    +0.000 A 
ATOM     61  C47 UNK     0      -7.348  -4.168   0.980  0.00  0.00    +0.000 A 
ATOM     62  C44 UNK     0      -6.701  -3.364   0.035  0.00  0.00    +0.000 A 
ENDBRANCH  55  57
ENDBRANCH  54  55
ENDBRANCH   7  54
BRANCH   4  63
ATOM     63  O2  UNK     0      -1.819  -0.631   1.670  0.00  0.00    +0.000 OA
BRANCH  63  64
ATOM     64  C36 UNK     0      -1.781  -1.195   2.958  0.00  0.00    +0.000 C 
ATOM     65  O9  UNK     0      -2.406  -0.680   3.925  0.00  0.00    +0.000 OA
ATOM     66  C38 UNK     0      -0.995  -2.443   3.181  0.00  0.00    +0.000 C 
ENDBRANCH  63  64
ENDBRANCH   4  63
TORSDOF 17
