REMARK  Name = C:\Users\Maximilian\Desktop\Conformers\converted_pdb\conformers_pdb\Paclitaxel_conf_5.pdb
REMARK  23 active torsions:
REMARK  status: ('A' for Active; 'I' for Inactive)
REMARK    1  A    between atoms: C17_4  and  O2_61
REMARK    2  A    between atoms: C18_5  and  C29_16
REMARK    3  A    between atoms: C20_7  and  O3_52
REMARK    4  A    between atoms: C21_8  and  O4_46
REMARK    5  A    between atoms: C22_9  and  O5_65
REMARK    6  A    between atoms: C24_11  and  C33_20
REMARK    7  A    between atoms: C24_11  and  C34_21
REMARK    8  A    between atoms: C30_17  and  O6_48
REMARK    9  A    between atoms: C31_18  and  O8_23
REMARK   10  A    between atoms: C32_19  and  C35_22
REMARK   11  A    between atoms: O8_23  and  C40_24
REMARK   12  A    between atoms: C40_24  and  C42_26
REMARK   13  A    between atoms: C42_26  and  O13_27
REMARK   14  A    between atoms: C42_26  and  C46_29
REMARK   15  A    between atoms: C46_29  and  N15_30
REMARK   16  A    between atoms: C46_29  and  C50_40
REMARK   17  A    between atoms: C53_32  and  C56_34
REMARK   18  A    between atoms: O6_48  and  C39_49
REMARK   19  A    between atoms: C39_49  and  C43_50
REMARK   20  A    between atoms: O3_52  and  C37_53
REMARK   21  A    between atoms: C37_53  and  C41_55
REMARK   22  A    between atoms: O2_61  and  C36_62
REMARK   23  A    between atoms: C36_62  and  C38_64
REMARK                            x       y       z     vdW  Elec       q    Type
REMARK                         _______ _______ _______ _____ _____    ______ ____
ROOT
ATOM      1  O1  UNK     0      -3.104   1.385   3.233  0.00  0.00    +0.000 OA
ATOM      2  O7  UNK     0       0.091   3.647  -1.168  0.00  0.00    +0.000 OA
ATOM      3  C16 UNK     0      -1.656   1.185   0.134  0.00  0.00    +0.000 C 
ATOM      4  C17 UNK     0      -1.801   0.749   1.661  0.00  0.00    +0.000 C 
ATOM      5  C18 UNK     0      -1.849   2.760  -0.093  0.00  0.00    +0.000 C 
ATOM      6  C19 UNK     0      -1.814   1.771   2.807  0.00  0.00    +0.000 C 
ATOM      7  C20 UNK     0      -2.452   0.130  -0.802  0.00  0.00    +0.000 C 
ATOM      8  C21 UNK     0      -1.868  -0.375  -2.215  0.00  0.00    +0.000 C 
ATOM      9  C22 UNK     0      -1.192   3.536   1.116  0.00  0.00    +0.000 C 
ATOM     10  C23 UNK     0      -1.834   3.255   2.462  0.00  0.00    +0.000 C 
ATOM     11  C24 UNK     0      -2.122   0.603  -3.420  0.00  0.00    +0.000 C 
ATOM     12  C25 UNK     0      -3.225   0.486   2.158  0.00  0.00    +0.000 C 
ATOM     13  C26 UNK     0      -1.056   3.248  -1.340  0.00  0.00    +0.000 C 
ATOM     14  C27 UNK     0      -0.336  -0.759  -2.098  0.00  0.00    +0.000 C 
ATOM     15  C28 UNK     0      -1.137   1.770  -3.302  0.00  0.00    +0.000 C 
ATOM     16  C29 UNK     0      -3.339   3.190  -0.172  0.00  0.00    +0.000 C 
ATOM     17  C30 UNK     0      -1.488   3.165  -2.791  0.00  0.00    +0.000 C 
ATOM     18  C31 UNK     0       0.692   0.092  -2.902  0.00  0.00    +0.000 C 
ATOM     19  C32 UNK     0       0.191   1.458  -3.322  0.00  0.00    +0.000 C 
ATOM     20  C33 UNK     0      -3.624   0.995  -3.556  0.00  0.00    +0.000 C 
ATOM     21  C34 UNK     0      -1.838  -0.117  -4.786  0.00  0.00    +0.000 C 
ATOM     22  C35 UNK     0       1.210   2.434  -3.878  0.00  0.00    +0.000 C 
ENDROOT
BRANCH   8  23
ATOM     23  O4  UNK     0      -2.586  -1.550  -2.567  0.00  0.00    +0.000 OA
ATOM     24  H84 UNK     0      -2.252  -2.327  -2.045  0.00  0.00    +0.000 HD
ENDBRANCH   8  23
BRANCH   9  25
ATOM     25  O5  UNK     0      -1.232   4.926   0.882  0.00  0.00    +0.000 OA
ATOM     26  H85 UNK     0      -0.536   5.342   1.457  0.00  0.00    +0.000 HD
ENDBRANCH   9  25
BRANCH  18  27
ATOM     27  O8  UNK     0       1.885   0.268  -2.131  0.00  0.00    +0.000 OA
BRANCH  27  28
ATOM     28  C40 UNK     0       2.814  -0.745  -1.899  0.00  0.00    +0.000 C 
ATOM     29  O12 UNK     0       2.527  -1.950  -2.148  0.00  0.00    +0.000 OA
BRANCH  28  30
ATOM     30  C42 UNK     0       4.178  -0.376  -1.383  0.00  0.00    +0.000 C 
BRANCH  30  31
ATOM     31  O13 UNK     0       5.148  -1.323  -1.767  0.00  0.00    +0.000 OA
ATOM     32 1H10 UNK     0       4.942  -2.182  -1.316  0.00  0.00    +0.000 HD
ENDBRANCH  30  31
BRANCH  30  33
ATOM     33  C46 UNK     0       4.187  -0.109   0.145  0.00  0.00    +0.000 C 
BRANCH  33  34
ATOM     34  C50 UNK     0       5.554   0.395   0.567  0.00  0.00    +0.000 A 
ATOM     35  C52 UNK     0       6.611  -0.499   0.824  0.00  0.00    +0.000 A 
ATOM     36  C55 UNK     0       7.876  -0.018   1.173  0.00  0.00    +0.000 A 
ATOM     37  C57 UNK     0       8.105   1.357   1.257  0.00  0.00    +0.000 A 
ATOM     38  C54 UNK     0       7.068   2.255   0.988  0.00  0.00    +0.000 A 
ATOM     39  C51 UNK     0       5.799   1.778   0.643  0.00  0.00    +0.000 A 
ENDBRANCH  33  34
BRANCH  33  40
ATOM     40  N15 UNK     0       3.798  -1.295   0.925  0.00  0.00    +0.000 N 
ATOM     41 3H10 UNK     0       3.465  -2.149   0.423  0.00  0.00    +0.000 HD
ATOM     42  C53 UNK     0       3.766  -1.278   2.364  0.00  0.00    +0.000 C 
ATOM     43  O14 UNK     0       3.772  -0.169   2.966  0.00  0.00    +0.000 OA
BRANCH  42  44
ATOM     44  C56 UNK     0       3.727  -2.536   3.157  0.00  0.00    +0.000 A 
ATOM     45  C59 UNK     0       3.475  -2.482   4.542  0.00  0.00    +0.000 A 
ATOM     46  C61 UNK     0       3.401  -3.654   5.299  0.00  0.00    +0.000 A 
ATOM     47  C62 UNK     0       3.604  -4.894   4.693  0.00  0.00    +0.000 A 
ATOM     48  C60 UNK     0       3.888  -4.963   3.329  0.00  0.00    +0.000 A 
ATOM     49  C58 UNK     0       3.960  -3.793   2.564  0.00  0.00    +0.000 A 
ENDBRANCH  42  44
ENDBRANCH  33  40
ENDBRANCH  30  33
ENDBRANCH  28  30
ENDBRANCH  27  28
ENDBRANCH  18  27
BRANCH  17  50
ATOM     50  O6  UNK     0      -2.837   3.582  -2.968  0.00  0.00    +0.000 OA
BRANCH  50  51
ATOM     51  C39 UNK     0      -3.316   4.187  -4.137  0.00  0.00    +0.000 C 
ATOM     52  C43 UNK     0      -4.690   4.762  -4.144  0.00  0.00    +0.000 C 
ATOM     53  O11 UNK     0      -2.621   4.216  -5.185  0.00  0.00    +0.000 OA
ENDBRANCH  50  51
ENDBRANCH  17  50
BRANCH   7  54
ATOM     54  O3  UNK     0      -2.659  -1.070  -0.037  0.00  0.00    +0.000 OA
BRANCH  54  55
ATOM     55  C37 UNK     0      -3.861  -1.794   0.026  0.00  0.00    +0.000 C 
ATOM     56  O10 UNK     0      -4.895  -1.372  -0.565  0.00  0.00    +0.000 OA
BRANCH  55  57
ATOM     57  C41 UNK     0      -3.907  -3.052   0.800  0.00  0.00    +0.000 A 
ATOM     58  C45 UNK     0      -2.714  -3.645   1.245  0.00  0.00    +0.000 A 
ATOM     59  C48 UNK     0      -2.747  -4.829   1.986  0.00  0.00    +0.000 A 
ATOM     60  C49 UNK     0      -3.969  -5.433   2.291  0.00  0.00    +0.000 A 
ATOM     61  C47 UNK     0      -5.162  -4.853   1.851  0.00  0.00    +0.000 A 
ATOM     62  C44 UNK     0      -5.134  -3.669   1.107  0.00  0.00    +0.000 A 
ENDBRANCH  55  57
ENDBRANCH  54  55
ENDBRANCH   7  54
BRANCH   4  63
ATOM     63  O2  UNK     0      -0.904  -0.350   1.927  0.00  0.00    +0.000 OA
BRANCH  63  64
ATOM     64  C36 UNK     0      -0.786  -1.102   3.110  0.00  0.00    +0.000 C 
ATOM     65  O9  UNK     0      -1.518  -0.885   4.114  0.00  0.00    +0.000 OA
ATOM     66  C38 UNK     0       0.212  -2.206   3.172  0.00  0.00    +0.000 C 
ENDBRANCH  63  64
ENDBRANCH   4  63
TORSDOF 17
