REMARK  Name = C:\Users\Maximilian\Desktop\Conformers\converted_pdb\conformers_pdb\Paclitaxel_conf_29.pdb
REMARK  23 active torsions:
REMARK  status: ('A' for Active; 'I' for Inactive)
REMARK    1  A    between atoms: C17_4  and  O2_61
REMARK    2  A    between atoms: C18_5  and  C29_16
REMARK    3  A    between atoms: C20_7  and  O3_52
REMARK    4  A    between atoms: C21_8  and  O4_46
REMARK    5  A    between atoms: C22_9  and  O5_65
REMARK    6  A    between atoms: C24_11  and  C33_20
REMARK    7  A    between atoms: C24_11  and  C34_21
REMARK    8  A    between atoms: C30_17  and  O6_48
REMARK    9  A    between atoms: C31_18  and  O8_23
REMARK   10  A    between atoms: C32_19  and  C35_22
REMARK   11  A    between atoms: O8_23  and  C40_24
REMARK   12  A    between atoms: C40_24  and  C42_26
REMARK   13  A    between atoms: C42_26  and  O13_27
REMARK   14  A    between atoms: C42_26  and  C46_29
REMARK   15  A    between atoms: C46_29  and  N15_30
REMARK   16  A    between atoms: C46_29  and  C50_40
REMARK   17  A    between atoms: C53_32  and  C56_34
REMARK   18  A    between atoms: O6_48  and  C39_49
REMARK   19  A    between atoms: C39_49  and  C43_50
REMARK   20  A    between atoms: O3_52  and  C37_53
REMARK   21  A    between atoms: C37_53  and  C41_55
REMARK   22  A    between atoms: O2_61  and  C36_62
REMARK   23  A    between atoms: C36_62  and  C38_64
REMARK                            x       y       z     vdW  Elec       q    Type
REMARK                         _______ _______ _______ _____ _____    ______ ____
ROOT
ATOM      1  O1  UNK     0      -5.869   0.418  -1.538  0.00  0.00    +0.000 OA
ATOM      2  O7  UNK     0      -0.777  -2.341  -2.124  0.00  0.00    +0.000 OA
ATOM      3  C16 UNK     0      -2.720  -0.385  -0.597  0.00  0.00    +0.000 C 
ATOM      4  C17 UNK     0      -3.808   0.677  -1.059  0.00  0.00    +0.000 C 
ATOM      5  C18 UNK     0      -2.927  -1.811  -1.275  0.00  0.00    +0.000 C 
ATOM      6  C19 UNK     0      -4.679   0.445  -2.300  0.00  0.00    +0.000 C 
ATOM      7  C20 UNK     0      -2.495  -0.268   1.002  0.00  0.00    +0.000 C 
ATOM      8  C21 UNK     0      -1.097  -0.602   1.743  0.00  0.00    +0.000 C 
ATOM      9  C22 UNK     0      -3.232  -1.596  -2.805  0.00  0.00    +0.000 C 
ATOM     10  C23 UNK     0      -4.536  -0.858  -3.090  0.00  0.00    +0.000 C 
ATOM     11  C24 UNK     0      -0.828  -2.130   2.074  0.00  0.00    +0.000 C 
ATOM     12  C25 UNK     0      -5.152   0.594  -0.340  0.00  0.00    +0.000 C 
ATOM     13  C26 UNK     0      -1.596  -2.596  -1.247  0.00  0.00    +0.000 C 
ATOM     14  C27 UNK     0       0.123   0.048   0.977  0.00  0.00    +0.000 C 
ATOM     15  C28 UNK     0      -0.270  -2.804   0.813  0.00  0.00    +0.000 C 
ATOM     16  C29 UNK     0      -4.104  -2.631  -0.676  0.00  0.00    +0.000 C 
ATOM     17  C30 UNK     0      -1.122  -3.579  -0.192  0.00  0.00    +0.000 C 
ATOM     18  C31 UNK     0       1.314  -0.873   0.572  0.00  0.00    +0.000 C 
ATOM     19  C32 UNK     0       0.909  -2.317   0.332  0.00  0.00    +0.000 C 
ATOM     20  C33 UNK     0      -2.048  -2.858   2.712  0.00  0.00    +0.000 C 
ATOM     21  C34 UNK     0       0.252  -2.274   3.207  0.00  0.00    +0.000 C 
ATOM     22  C35 UNK     0       1.830  -3.176  -0.505  0.00  0.00    +0.000 C 
ENDROOT
BRANCH   8  23
ATOM     23  O4  UNK     0      -1.121   0.067   2.991  0.00  0.00    +0.000 OA
ATOM     24  H84 UNK     0      -1.925  -0.213   3.496  0.00  0.00    +0.000 HD
ENDBRANCH   8  23
BRANCH   9  25
ATOM     25  O5  UNK     0      -3.260  -2.836  -3.473  0.00  0.00    +0.000 OA
ATOM     26  H85 UNK     0      -3.162  -2.646  -4.443  0.00  0.00    +0.000 HD
ENDBRANCH   9  25
BRANCH  18  27
ATOM     27  O8  UNK     0       1.916  -0.359  -0.622  0.00  0.00    +0.000 OA
BRANCH  27  28
ATOM     28  C40 UNK     0       2.678   0.817  -0.661  0.00  0.00    +0.000 C 
ATOM     29  O12 UNK     0       2.963   1.425   0.404  0.00  0.00    +0.000 OA
BRANCH  28  30
ATOM     30  C42 UNK     0       3.167   1.369  -1.977  0.00  0.00    +0.000 C 
BRANCH  30  31
ATOM     31  O13 UNK     0       2.327   0.984  -3.039  0.00  0.00    +0.000 OA
ATOM     32 1H10 UNK     0       2.320  -0.006  -3.094  0.00  0.00    +0.000 HD
ENDBRANCH  30  31
BRANCH  30  33
ATOM     33  C46 UNK     0       4.656   1.045  -2.287  0.00  0.00    +0.000 C 
BRANCH  33  34
ATOM     34  C50 UNK     0       4.897  -0.427  -2.599  0.00  0.00    +0.000 A 
ATOM     35  C52 UNK     0       5.115  -0.831  -3.931  0.00  0.00    +0.000 A 
ATOM     36  C55 UNK     0       5.355  -2.174  -4.237  0.00  0.00    +0.000 A 
ATOM     37  C57 UNK     0       5.388  -3.129  -3.219  0.00  0.00    +0.000 A 
ATOM     38  C54 UNK     0       5.171  -2.746  -1.895  0.00  0.00    +0.000 A 
ATOM     39  C51 UNK     0       4.911  -1.406  -1.585  0.00  0.00    +0.000 A 
ENDBRANCH  33  34
BRANCH  33  40
ATOM     40  N15 UNK     0       5.539   1.507  -1.205  0.00  0.00    +0.000 N 
ATOM     41 3H10 UNK     0       6.027   0.801  -0.608  0.00  0.00    +0.000 HD
ATOM     42  C53 UNK     0       5.867   2.893  -1.015  0.00  0.00    +0.000 C 
ATOM     43  O14 UNK     0       5.445   3.752  -1.837  0.00  0.00    +0.000 OA
BRANCH  42  44
ATOM     44  C56 UNK     0       6.736   3.327   0.104  0.00  0.00    +0.000 A 
ATOM     45  C59 UNK     0       6.813   2.583   1.299  0.00  0.00    +0.000 A 
ATOM     46  C61 UNK     0       7.658   2.991   2.335  0.00  0.00    +0.000 A 
ATOM     47  C62 UNK     0       8.437   4.143   2.193  0.00  0.00    +0.000 A 
ATOM     48  C60 UNK     0       8.360   4.894   1.019  0.00  0.00    +0.000 A 
ATOM     49  C58 UNK     0       7.513   4.492  -0.019  0.00  0.00    +0.000 A 
ENDBRANCH  42  44
ENDBRANCH  33  40
ENDBRANCH  30  33
ENDBRANCH  28  30
ENDBRANCH  27  28
ENDBRANCH  18  27
BRANCH  17  50
ATOM     50  O6  UNK     0      -2.178  -4.350   0.373  0.00  0.00    +0.000 OA
BRANCH  50  51
ATOM     51  C39 UNK     0      -1.990  -5.604   0.966  0.00  0.00    +0.000 C 
ATOM     52  C43 UNK     0      -3.186  -6.403   1.361  0.00  0.00    +0.000 C 
ATOM     53  O11 UNK     0      -0.834  -6.037   1.209  0.00  0.00    +0.000 OA
ENDBRANCH  50  51
ENDBRANCH  17  50
BRANCH   7  54
ATOM     54  O3  UNK     0      -2.783   1.092   1.367  0.00  0.00    +0.000 OA
BRANCH  54  55
ATOM     55  C37 UNK     0      -3.690   1.499   2.359  0.00  0.00    +0.000 C 
ATOM     56  O10 UNK     0      -4.402   0.653   2.968  0.00  0.00    +0.000 OA
BRANCH  55  57
ATOM     57  C41 UNK     0      -3.815   2.936   2.675  0.00  0.00    +0.000 A 
ATOM     58  C45 UNK     0      -2.848   3.845   2.215  0.00  0.00    +0.000 A 
ATOM     59  C48 UNK     0      -2.973   5.212   2.491  0.00  0.00    +0.000 A 
ATOM     60  C49 UNK     0      -4.064   5.680   3.228  0.00  0.00    +0.000 A 
ATOM     61  C47 UNK     0      -5.028   4.783   3.693  0.00  0.00    +0.000 A 
ATOM     62  C44 UNK     0      -4.906   3.417   3.420  0.00  0.00    +0.000 A 
ENDBRANCH  55  57
ENDBRANCH  54  55
ENDBRANCH   7  54
BRANCH   4  63
ATOM     63  O2  UNK     0      -3.231   2.002  -1.051  0.00  0.00    +0.000 OA
BRANCH  63  64
ATOM     64  C36 UNK     0      -3.880   3.234  -1.258  0.00  0.00    +0.000 C 
ATOM     65  O9  UNK     0      -5.113   3.301  -1.513  0.00  0.00    +0.000 OA
ATOM     66  C38 UNK     0      -3.086   4.493  -1.210  0.00  0.00    +0.000 C 
ENDBRANCH  63  64
ENDBRANCH   4  63
TORSDOF 17
