REMARK  Name = C:\Users\Maximilian\Desktop\Conformers\converted_pdb\conformers_pdb\Paclitaxel_conf_58.pdb
REMARK  23 active torsions:
REMARK  status: ('A' for Active; 'I' for Inactive)
REMARK    1  A    between atoms: C17_4  and  O2_61
REMARK    2  A    between atoms: C18_5  and  C29_16
REMARK    3  A    between atoms: C20_7  and  O3_52
REMARK    4  A    between atoms: C21_8  and  O4_46
REMARK    5  A    between atoms: C22_9  and  O5_65
REMARK    6  A    between atoms: C24_11  and  C33_20
REMARK    7  A    between atoms: C24_11  and  C34_21
REMARK    8  A    between atoms: C30_17  and  O6_48
REMARK    9  A    between atoms: C31_18  and  O8_23
REMARK   10  A    between atoms: C32_19  and  C35_22
REMARK   11  A    between atoms: O8_23  and  C40_24
REMARK   12  A    between atoms: C40_24  and  C42_26
REMARK   13  A    between atoms: C42_26  and  O13_27
REMARK   14  A    between atoms: C42_26  and  C46_29
REMARK   15  A    between atoms: C46_29  and  N15_30
REMARK   16  A    between atoms: C46_29  and  C50_40
REMARK   17  A    between atoms: C53_32  and  C56_34
REMARK   18  A    between atoms: O6_48  and  C39_49
REMARK   19  A    between atoms: C39_49  and  C43_50
REMARK   20  A    between atoms: O3_52  and  C37_53
REMARK   21  A    between atoms: C37_53  and  C41_55
REMARK   22  A    between atoms: O2_61  and  C36_62
REMARK   23  A    between atoms: C36_62  and  C38_64
REMARK                            x       y       z     vdW  Elec       q    Type
REMARK                         _______ _______ _______ _____ _____    ______ ____
ROOT
ATOM      1  O1  UNK     0      -5.096   0.137   1.829  0.00  0.00    +0.000 OA
ATOM      2  O7  UNK     0      -4.113   1.917  -3.784  0.00  0.00    +0.000 OA
ATOM      3  C16 UNK     0      -2.846   0.418  -0.670  0.00  0.00    +0.000 C 
ATOM      4  C17 UNK     0      -3.196   0.223   0.863  0.00  0.00    +0.000 C 
ATOM      5  C18 UNK     0      -3.875   1.343  -1.465  0.00  0.00    +0.000 C 
ATOM      6  C19 UNK     0      -4.179   1.173   1.554  0.00  0.00    +0.000 C 
ATOM      7  C20 UNK     0      -2.380  -0.928  -1.396  0.00  0.00    +0.000 C 
ATOM      8  C21 UNK     0      -0.942  -0.949  -2.103  0.00  0.00    +0.000 C 
ATOM      9  C22 UNK     0      -4.143   2.609  -0.589  0.00  0.00    +0.000 C 
ATOM     10  C23 UNK     0      -4.849   2.281   0.731  0.00  0.00    +0.000 C 
ATOM     11  C24 UNK     0      -0.821   0.036  -3.329  0.00  0.00    +0.000 C 
ATOM     12  C25 UNK     0      -4.252  -0.814   1.226  0.00  0.00    +0.000 C 
ATOM     13  C26 UNK     0      -3.338   1.844  -2.836  0.00  0.00    +0.000 C 
ATOM     14  C27 UNK     0       0.200  -0.654  -1.043  0.00  0.00    +0.000 C 
ATOM     15  C28 UNK     0      -0.848   1.460  -2.727  0.00  0.00    +0.000 C 
ATOM     16  C29 UNK     0      -5.221   0.602  -1.733  0.00  0.00    +0.000 C 
ATOM     17  C30 UNK     0      -1.960   2.445  -3.047  0.00  0.00    +0.000 C 
ATOM     18  C31 UNK     0       0.978   0.682  -1.213  0.00  0.00    +0.000 C 
ATOM     19  C32 UNK     0       0.103   1.780  -1.795  0.00  0.00    +0.000 C 
ATOM     20  C33 UNK     0      -1.908  -0.254  -4.411  0.00  0.00    +0.000 C 
ATOM     21  C34 UNK     0       0.542  -0.166  -4.093  0.00  0.00    +0.000 C 
ATOM     22  C35 UNK     0       0.346   3.211  -1.357  0.00  0.00    +0.000 C 
ENDROOT
BRANCH   8  23
ATOM     23  O4  UNK     0      -0.748  -2.251  -2.631  0.00  0.00    +0.000 OA
ATOM     24  H84 UNK     0      -0.581  -2.884  -1.885  0.00  0.00    +0.000 HD
ENDBRANCH   8  23
BRANCH   9  25
ATOM     25  O5  UNK     0      -4.922   3.542  -1.299  0.00  0.00    +0.000 OA
ATOM     26  H85 UNK     0      -4.796   4.423  -0.855  0.00  0.00    +0.000 HD
ENDBRANCH   9  25
BRANCH  18  27
ATOM     27  O8  UNK     0       1.518   1.093   0.046  0.00  0.00    +0.000 OA
BRANCH  27  28
ATOM     28  C40 UNK     0       2.797   0.723   0.481  0.00  0.00    +0.000 C 
ATOM     29  O12 UNK     0       3.351  -0.311   0.015  0.00  0.00    +0.000 OA
BRANCH  28  30
ATOM     30  C42 UNK     0       3.542   1.637   1.421  0.00  0.00    +0.000 C 
BRANCH  30  31
ATOM     31  O13 UNK     0       4.648   2.185   0.750  0.00  0.00    +0.000 OA
ATOM     32 1H10 UNK     0       5.355   1.493   0.700  0.00  0.00    +0.000 HD
ENDBRANCH  30  31
BRANCH  30  33
ATOM     33  C46 UNK     0       3.926   0.975   2.778  0.00  0.00    +0.000 C 
BRANCH  33  34
ATOM     34  C50 UNK     0       4.678   1.893   3.747  0.00  0.00    +0.000 A 
ATOM     35  C52 UNK     0       5.255   1.330   4.905  0.00  0.00    +0.000 A 
ATOM     36  C55 UNK     0       5.947   2.126   5.822  0.00  0.00    +0.000 A 
ATOM     37  C57 UNK     0       6.050   3.501   5.616  0.00  0.00    +0.000 A 
ATOM     38  C54 UNK     0       5.438   4.088   4.508  0.00  0.00    +0.000 A 
ATOM     39  C51 UNK     0       4.755   3.296   3.579  0.00  0.00    +0.000 A 
ENDBRANCH  33  34
BRANCH  33  40
ATOM     40  N15 UNK     0       4.719  -0.242   2.546  0.00  0.00    +0.000 N 
ATOM     41 3H10 UNK     0       5.739  -0.126   2.351  0.00  0.00    +0.000 HD
ATOM     42  C53 UNK     0       4.161  -1.566   2.616  0.00  0.00    +0.000 C 
ATOM     43  O14 UNK     0       2.985  -1.726   3.044  0.00  0.00    +0.000 OA
BRANCH  42  44
ATOM     44  C56 UNK     0       4.940  -2.761   2.200  0.00  0.00    +0.000 A 
ATOM     45  C59 UNK     0       6.056  -2.648   1.345  0.00  0.00    +0.000 A 
ATOM     46  C61 UNK     0       6.783  -3.783   0.975  0.00  0.00    +0.000 A 
ATOM     47  C62 UNK     0       6.404  -5.042   1.442  0.00  0.00    +0.000 A 
ATOM     48  C60 UNK     0       5.288  -5.174   2.273  0.00  0.00    +0.000 A 
ATOM     49  C58 UNK     0       4.560  -4.040   2.652  0.00  0.00    +0.000 A 
ENDBRANCH  42  44
ENDBRANCH  33  40
ENDBRANCH  30  33
ENDBRANCH  28  30
ENDBRANCH  27  28
ENDBRANCH  18  27
BRANCH  17  50
ATOM     50  O6  UNK     0      -1.785   2.884  -4.396  0.00  0.00    +0.000 OA
BRANCH  50  51
ATOM     51  C39 UNK     0      -2.231   4.118  -4.883  0.00  0.00    +0.000 C 
ATOM     52  C43 UNK     0      -2.078   4.423  -6.332  0.00  0.00    +0.000 C 
ATOM     53  O11 UNK     0      -2.719   4.985  -4.108  0.00  0.00    +0.000 OA
ENDBRANCH  50  51
ENDBRANCH  17  50
BRANCH   7  54
ATOM     54  O3  UNK     0      -2.420  -2.019  -0.463  0.00  0.00    +0.000 OA
BRANCH  54  55
ATOM     55  C37 UNK     0      -2.965  -3.285  -0.731  0.00  0.00    +0.000 C 
ATOM     56  O10 UNK     0      -3.475  -3.539  -1.862  0.00  0.00    +0.000 OA
BRANCH  55  57
ATOM     57  C41 UNK     0      -2.940  -4.327   0.312  0.00  0.00    +0.000 A 
ATOM     58  C45 UNK     0      -3.553  -5.574   0.096  0.00  0.00    +0.000 A 
ATOM     59  C48 UNK     0      -3.532  -6.556   1.091  0.00  0.00    +0.000 A 
ATOM     60  C49 UNK     0      -2.911  -6.299   2.315  0.00  0.00    +0.000 A 
ATOM     61  C47 UNK     0      -2.301  -5.062   2.542  0.00  0.00    +0.000 A 
ATOM     62  C44 UNK     0      -2.312  -4.079   1.545  0.00  0.00    +0.000 A 
ENDBRANCH  55  57
ENDBRANCH  54  55
ENDBRANCH   7  54
BRANCH   4  63
ATOM     63  O2  UNK     0      -2.027   0.003   1.663  0.00  0.00    +0.000 OA
BRANCH  63  64
ATOM     64  C36 UNK     0      -1.124   1.009   2.027  0.00  0.00    +0.000 C 
ATOM     65  O9  UNK     0      -1.299   2.203   1.661  0.00  0.00    +0.000 OA
ATOM     66  C38 UNK     0       0.037   0.663   2.889  0.00  0.00    +0.000 C 
ENDBRANCH  63  64
ENDBRANCH   4  63
TORSDOF 17
