REMARK  Name = C:\Users\Maximilian\Desktop\Conformers\converted_pdb\conformers_pdb\Paclitaxel_conf_31.pdb
REMARK  23 active torsions:
REMARK  status: ('A' for Active; 'I' for Inactive)
REMARK    1  A    between atoms: C17_4  and  O2_61
REMARK    2  A    between atoms: C18_5  and  C29_16
REMARK    3  A    between atoms: C20_7  and  O3_52
REMARK    4  A    between atoms: C21_8  and  O4_46
REMARK    5  A    between atoms: C22_9  and  O5_65
REMARK    6  A    between atoms: C24_11  and  C33_20
REMARK    7  A    between atoms: C24_11  and  C34_21
REMARK    8  A    between atoms: C30_17  and  O6_48
REMARK    9  A    between atoms: C31_18  and  O8_23
REMARK   10  A    between atoms: C32_19  and  C35_22
REMARK   11  A    between atoms: O8_23  and  C40_24
REMARK   12  A    between atoms: C40_24  and  C42_26
REMARK   13  A    between atoms: C42_26  and  O13_27
REMARK   14  A    between atoms: C42_26  and  C46_29
REMARK   15  A    between atoms: C46_29  and  N15_30
REMARK   16  A    between atoms: C46_29  and  C50_40
REMARK   17  A    between atoms: C53_32  and  C56_34
REMARK   18  A    between atoms: O6_48  and  C39_49
REMARK   19  A    between atoms: C39_49  and  C43_50
REMARK   20  A    between atoms: O3_52  and  C37_53
REMARK   21  A    between atoms: C37_53  and  C41_55
REMARK   22  A    between atoms: O2_61  and  C36_62
REMARK   23  A    between atoms: C36_62  and  C38_64
REMARK                            x       y       z     vdW  Elec       q    Type
REMARK                         _______ _______ _______ _____ _____    ______ ____
ROOT
ATOM      1  O1  UNK     0      -4.884   3.046  -0.523  0.00  0.00    +0.000 OA
ATOM      2  O7  UNK     0      -4.232  -2.431  -2.667  0.00  0.00    +0.000 OA
ATOM      3  C16 UNK     0      -3.066   0.211  -0.396  0.00  0.00    +0.000 C 
ATOM      4  C17 UNK     0      -3.251   1.753  -0.089  0.00  0.00    +0.000 C 
ATOM      5  C18 UNK     0      -3.820  -0.267  -1.722  0.00  0.00    +0.000 C 
ATOM      6  C19 UNK     0      -3.693   2.711  -1.199  0.00  0.00    +0.000 C 
ATOM      7  C20 UNK     0      -3.224  -0.699   0.910  0.00  0.00    +0.000 C 
ATOM      8  C21 UNK     0      -2.046  -1.722   1.270  0.00  0.00    +0.000 C 
ATOM      9  C22 UNK     0      -3.460   0.742  -2.857  0.00  0.00    +0.000 C 
ATOM     10  C23 UNK     0      -4.007   2.151  -2.599  0.00  0.00    +0.000 C 
ATOM     11  C24 UNK     0      -1.811  -2.845   0.189  0.00  0.00    +0.000 C 
ATOM     12  C25 UNK     0      -4.560   2.192   0.547  0.00  0.00    +0.000 C 
ATOM     13  C26 UNK     0      -3.381  -1.665  -2.233  0.00  0.00    +0.000 C 
ATOM     14  C27 UNK     0      -0.698  -0.930   1.547  0.00  0.00    +0.000 C 
ATOM     15  C28 UNK     0      -1.207  -2.131  -1.043  0.00  0.00    +0.000 C 
ATOM     16  C29 UNK     0      -5.372  -0.304  -1.530  0.00  0.00    +0.000 C 
ATOM     17  C30 UNK     0      -1.932  -2.098  -2.380  0.00  0.00    +0.000 C 
ATOM     18  C31 UNK     0       0.466  -1.185   0.549  0.00  0.00    +0.000 C 
ATOM     19  C32 UNK     0      -0.057  -1.402  -0.863  0.00  0.00    +0.000 C 
ATOM     20  C33 UNK     0      -3.118  -3.661  -0.075  0.00  0.00    +0.000 C 
ATOM     21  C34 UNK     0      -0.786  -3.931   0.696  0.00  0.00    +0.000 C 
ATOM     22  C35 UNK     0       0.718  -0.822  -2.033  0.00  0.00    +0.000 C 
ENDROOT
BRANCH   8  23
ATOM     23  O4  UNK     0      -2.428  -2.403   2.450  0.00  0.00    +0.000 OA
ATOM     24  H84 UNK     0      -2.360  -1.789   3.227  0.00  0.00    +0.000 HD
ENDBRANCH   8  23
BRANCH   9  25
ATOM     25  O5  UNK     0      -3.952   0.282  -4.095  0.00  0.00    +0.000 OA
ATOM     26  H85 UNK     0      -3.447   0.760  -4.805  0.00  0.00    +0.000 HD
ENDBRANCH   9  25
BRANCH  18  27
ATOM     27  O8  UNK     0       1.400  -0.101   0.603  0.00  0.00    +0.000 OA
BRANCH  27  28
ATOM     28  C40 UNK     0       2.372   0.011   1.608  0.00  0.00    +0.000 C 
ATOM     29  O12 UNK     0       2.306  -0.702   2.646  0.00  0.00    +0.000 OA
BRANCH  28  30
ATOM     30  C42 UNK     0       3.551   0.929   1.418  0.00  0.00    +0.000 C 
BRANCH  30  31
ATOM     31  O13 UNK     0       3.097   2.246   1.266  0.00  0.00    +0.000 OA
ATOM     32 1H10 UNK     0       2.883   2.583   2.176  0.00  0.00    +0.000 HD
ENDBRANCH  30  31
BRANCH  30  33
ATOM     33  C46 UNK     0       4.373   0.522   0.174  0.00  0.00    +0.000 C 
BRANCH  33  34
ATOM     34  C50 UNK     0       4.961  -0.866   0.347  0.00  0.00    +0.000 A 
ATOM     35  C52 UNK     0       6.051  -1.081   1.212  0.00  0.00    +0.000 A 
ATOM     36  C55 UNK     0       6.554  -2.371   1.408  0.00  0.00    +0.000 A 
ATOM     37  C57 UNK     0       5.971  -3.458   0.751  0.00  0.00    +0.000 A 
ATOM     38  C54 UNK     0       4.887  -3.256  -0.107  0.00  0.00    +0.000 A 
ATOM     39  C51 UNK     0       4.382  -1.968  -0.307  0.00  0.00    +0.000 A 
ENDBRANCH  33  34
BRANCH  33  40
ATOM     40  N15 UNK     0       5.449   1.489  -0.075  0.00  0.00    +0.000 N 
ATOM     41 3H10 UNK     0       5.716   2.154   0.686  0.00  0.00    +0.000 HD
ATOM     42  C53 UNK     0       6.113   1.579  -1.347  0.00  0.00    +0.000 C 
ATOM     43  O14 UNK     0       5.675   0.916  -2.328  0.00  0.00    +0.000 OA
BRANCH  42  44
ATOM     44  C56 UNK     0       7.291   2.455  -1.535  0.00  0.00    +0.000 A 
ATOM     45  C59 UNK     0       8.148   2.758  -0.460  0.00  0.00    +0.000 A 
ATOM     46  C61 UNK     0       9.259   3.585  -0.654  0.00  0.00    +0.000 A 
ATOM     47  C62 UNK     0       9.526   4.117  -1.917  0.00  0.00    +0.000 A 
ATOM     48  C60 UNK     0       8.691   3.811  -2.994  0.00  0.00    +0.000 A 
ATOM     49  C58 UNK     0       7.581   2.982  -2.807  0.00  0.00    +0.000 A 
ENDBRANCH  42  44
ENDBRANCH  33  40
ENDBRANCH  30  33
ENDBRANCH  28  30
ENDBRANCH  27  28
ENDBRANCH  18  27
BRANCH  17  50
ATOM     50  O6  UNK     0      -1.827  -3.394  -2.974  0.00  0.00    +0.000 OA
BRANCH  50  51
ATOM     51  C39 UNK     0      -2.009  -3.638  -4.341  0.00  0.00    +0.000 C 
ATOM     52  C43 UNK     0      -1.915  -5.038  -4.850  0.00  0.00    +0.000 C 
ATOM     53  O11 UNK     0      -2.227  -2.690  -5.145  0.00  0.00    +0.000 OA
ENDBRANCH  50  51
ENDBRANCH  17  50
BRANCH   7  54
ATOM     54  O3  UNK     0      -3.399   0.150   2.053  0.00  0.00    +0.000 OA
BRANCH  54  55
ATOM     55  C37 UNK     0      -4.366  -0.024   3.053  0.00  0.00    +0.000 C 
ATOM     56  O10 UNK     0      -5.178  -0.988   2.997  0.00  0.00    +0.000 OA
BRANCH  55  57
ATOM     57  C41 UNK     0      -4.436   0.944   4.167  0.00  0.00    +0.000 A 
ATOM     58  C45 UNK     0      -3.486   1.978   4.266  0.00  0.00    +0.000 A 
ATOM     59  C48 UNK     0      -3.552   2.902   5.314  0.00  0.00    +0.000 A 
ATOM     60  C49 UNK     0      -4.562   2.802   6.274  0.00  0.00    +0.000 A 
ATOM     61  C47 UNK     0      -5.509   1.780   6.186  0.00  0.00    +0.000 A 
ATOM     62  C44 UNK     0      -5.447   0.851   5.142  0.00  0.00    +0.000 A 
ENDBRANCH  55  57
ENDBRANCH  54  55
ENDBRANCH   7  54
BRANCH   4  63
ATOM     63  O2  UNK     0      -2.163   2.294   0.668  0.00  0.00    +0.000 OA
BRANCH  63  64
ATOM     64  C36 UNK     0      -0.905   2.600   0.139  0.00  0.00    +0.000 C 
ATOM     65  O9  UNK     0      -0.617   2.328  -1.059  0.00  0.00    +0.000 OA
ATOM     66  C38 UNK     0       0.098   3.265   1.013  0.00  0.00    +0.000 C 
ENDBRANCH  63  64
ENDBRANCH   4  63
TORSDOF 17
