REMARK  Name = C:\Users\Maximilian\Desktop\Conformers\converted_pdb\conformers_pdb\Paclitaxel_conf_44.pdb
REMARK  23 active torsions:
REMARK  status: ('A' for Active; 'I' for Inactive)
REMARK    1  A    between atoms: C17_4  and  O2_61
REMARK    2  A    between atoms: C18_5  and  C29_16
REMARK    3  A    between atoms: C20_7  and  O3_52
REMARK    4  A    between atoms: C21_8  and  O4_46
REMARK    5  A    between atoms: C22_9  and  O5_65
REMARK    6  A    between atoms: C24_11  and  C33_20
REMARK    7  A    between atoms: C24_11  and  C34_21
REMARK    8  A    between atoms: C30_17  and  O6_48
REMARK    9  A    between atoms: C31_18  and  O8_23
REMARK   10  A    between atoms: C32_19  and  C35_22
REMARK   11  A    between atoms: O8_23  and  C40_24
REMARK   12  A    between atoms: C40_24  and  C42_26
REMARK   13  A    between atoms: C42_26  and  O13_27
REMARK   14  A    between atoms: C42_26  and  C46_29
REMARK   15  A    between atoms: C46_29  and  N15_30
REMARK   16  A    between atoms: C46_29  and  C50_40
REMARK   17  A    between atoms: C53_32  and  C56_34
REMARK   18  A    between atoms: O6_48  and  C39_49
REMARK   19  A    between atoms: C39_49  and  C43_50
REMARK   20  A    between atoms: O3_52  and  C37_53
REMARK   21  A    between atoms: C37_53  and  C41_55
REMARK   22  A    between atoms: O2_61  and  C36_62
REMARK   23  A    between atoms: C36_62  and  C38_64
REMARK                            x       y       z     vdW  Elec       q    Type
REMARK                         _______ _______ _______ _____ _____    ______ ____
ROOT
ATOM      1  O1  UNK     0      -4.182  -2.168  -1.722  0.00  0.00    +0.000 OA
ATOM      2  O7  UNK     0      -2.448  -2.157   3.927  0.00  0.00    +0.000 OA
ATOM      3  C16 UNK     0      -2.685  -0.473   0.697  0.00  0.00    +0.000 C 
ATOM      4  C17 UNK     0      -3.102  -0.572  -0.819  0.00  0.00    +0.000 C 
ATOM      5  C18 UNK     0      -3.043  -1.764   1.605  0.00  0.00    +0.000 C 
ATOM      6  C19 UNK     0      -2.813  -1.923  -1.463  0.00  0.00    +0.000 C 
ATOM      7  C20 UNK     0      -2.932   0.960   1.345  0.00  0.00    +0.000 C 
ATOM      8  C21 UNK     0      -1.677   1.754   1.945  0.00  0.00    +0.000 C 
ATOM      9  C22 UNK     0      -2.897  -3.126   0.781  0.00  0.00    +0.000 C 
ATOM     10  C23 UNK     0      -2.147  -2.958  -0.538  0.00  0.00    +0.000 C 
ATOM     11  C24 UNK     0      -0.899   0.990   3.120  0.00  0.00    +0.000 C 
ATOM     12  C25 UNK     0      -4.542  -0.925  -1.159  0.00  0.00    +0.000 C 
ATOM     13  C26 UNK     0      -2.052  -1.876   2.806  0.00  0.00    +0.000 C 
ATOM     14  C27 UNK     0      -0.675   2.138   0.785  0.00  0.00    +0.000 C 
ATOM     15  C28 UNK     0      -0.165  -0.203   2.447  0.00  0.00    +0.000 C 
ATOM     16  C29 UNK     0      -4.500  -1.699   2.220  0.00  0.00    +0.000 C 
ATOM     17  C30 UNK     0      -0.565  -1.660   2.653  0.00  0.00    +0.000 C 
ATOM     18  C31 UNK     0       0.725   1.466   0.802  0.00  0.00    +0.000 C 
ATOM     19  C32 UNK     0       0.727   0.091   1.447  0.00  0.00    +0.000 C 
ATOM     20  C33 UNK     0      -1.860   0.623   4.299  0.00  0.00    +0.000 C 
ATOM     21  C34 UNK     0       0.209   1.890   3.778  0.00  0.00    +0.000 C 
ATOM     22  C35 UNK     0       1.701  -0.938   0.929  0.00  0.00    +0.000 C 
ENDROOT
BRANCH   8  23
ATOM     23  O4  UNK     0      -2.260   2.961   2.421  0.00  0.00    +0.000 OA
ATOM     24  H84 UNK     0      -1.655   3.406   3.072  0.00  0.00    +0.000 HD
ENDBRANCH   8  23
BRANCH   9  25
ATOM     25  O5  UNK     0      -4.141  -3.730   0.496  0.00  0.00    +0.000 OA
ATOM     26  H85 UNK     0      -4.008  -4.719   0.476  0.00  0.00    +0.000 HD
ENDBRANCH   9  25
BRANCH  18  27
ATOM     27  O8  UNK     0       1.175   1.355  -0.548  0.00  0.00    +0.000 OA
BRANCH  27  28
ATOM     28  C40 UNK     0       2.457   1.734  -0.979  0.00  0.00    +0.000 C 
ATOM     29  O12 UNK     0       3.190   2.461  -0.255  0.00  0.00    +0.000 OA
BRANCH  28  30
ATOM     30  C42 UNK     0       2.949   1.288  -2.332  0.00  0.00    +0.000 C 
BRANCH  30  31
ATOM     31  O13 UNK     0       2.175   0.213  -2.795  0.00  0.00    +0.000 OA
ATOM     32 1H10 UNK     0       1.273   0.560  -3.036  0.00  0.00    +0.000 HD
ENDBRANCH  30  31
BRANCH  30  33
ATOM     33  C46 UNK     0       4.443   0.889  -2.291  0.00  0.00    +0.000 C 
BRANCH  33  34
ATOM     34  C50 UNK     0       4.970   0.532  -3.671  0.00  0.00    +0.000 A 
ATOM     35  C52 UNK     0       5.754   1.451  -4.393  0.00  0.00    +0.000 A 
ATOM     36  C55 UNK     0       6.275   1.106  -5.641  0.00  0.00    +0.000 A 
ATOM     37  C57 UNK     0       5.997  -0.149  -6.192  0.00  0.00    +0.000 A 
ATOM     38  C54 UNK     0       5.202  -1.057  -5.492  0.00  0.00    +0.000 A 
ATOM     39  C51 UNK     0       4.684  -0.722  -4.245  0.00  0.00    +0.000 A 
ENDBRANCH  33  34
BRANCH  33  40
ATOM     40  N15 UNK     0       4.665  -0.217  -1.351  0.00  0.00    +0.000 N 
ATOM     41 3H10 UNK     0       4.052  -1.061  -1.449  0.00  0.00    +0.000 HD
ATOM     42  C53 UNK     0       5.807  -0.270  -0.483  0.00  0.00    +0.000 C 
ATOM     43  O14 UNK     0       6.593   0.723  -0.427  0.00  0.00    +0.000 OA
BRANCH  42  44
ATOM     44  C56 UNK     0       6.108  -1.464   0.334  0.00  0.00    +0.000 A 
ATOM     45  C59 UNK     0       7.417  -1.663   0.810  0.00  0.00    +0.000 A 
ATOM     46  C61 UNK     0       7.742  -2.783   1.583  0.00  0.00    +0.000 A 
ATOM     47  C62 UNK     0       6.747  -3.705   1.918  0.00  0.00    +0.000 A 
ATOM     48  C60 UNK     0       5.440  -3.512   1.470  0.00  0.00    +0.000 A 
ATOM     49  C58 UNK     0       5.115  -2.405   0.680  0.00  0.00    +0.000 A 
ENDBRANCH  42  44
ENDBRANCH  33  40
ENDBRANCH  30  33
ENDBRANCH  28  30
ENDBRANCH  27  28
ENDBRANCH  18  27
BRANCH  17  50
ATOM     50  O6  UNK     0       0.149  -2.195   3.762  0.00  0.00    +0.000 OA
BRANCH  50  51
ATOM     51  C39 UNK     0       0.603  -3.520   3.829  0.00  0.00    +0.000 C 
ATOM     52  C43 UNK     0       1.322  -3.981   5.050  0.00  0.00    +0.000 C 
ATOM     53  O11 UNK     0       0.553  -4.280   2.819  0.00  0.00    +0.000 OA
ENDBRANCH  50  51
ENDBRANCH  17  50
BRANCH   7  54
ATOM     54  O3  UNK     0      -3.564   1.843   0.414  0.00  0.00    +0.000 OA
BRANCH  54  55
ATOM     55  C37 UNK     0      -4.947   2.050   0.349  0.00  0.00    +0.000 C 
ATOM     56  O10 UNK     0      -5.739   1.159   0.750  0.00  0.00    +0.000 OA
BRANCH  55  57
ATOM     57  C41 UNK     0      -5.458   3.295  -0.249  0.00  0.00    +0.000 A 
ATOM     58  C45 UNK     0      -6.791   3.690  -0.034  0.00  0.00    +0.000 A 
ATOM     59  C48 UNK     0      -7.243   4.914  -0.526  0.00  0.00    +0.000 A 
ATOM     60  C49 UNK     0      -6.386   5.751  -1.240  0.00  0.00    +0.000 A 
ATOM     61  C47 UNK     0      -5.063   5.363  -1.469  0.00  0.00    +0.000 A 
ATOM     62  C44 UNK     0      -4.601   4.139  -0.976  0.00  0.00    +0.000 A 
ENDBRANCH  55  57
ENDBRANCH  54  55
ENDBRANCH   7  54
BRANCH   4  63
ATOM     63  O2  UNK     0      -2.563   0.518  -1.591  0.00  0.00    +0.000 OA
BRANCH  63  64
ATOM     64  C36 UNK     0      -2.697   0.743  -2.971  0.00  0.00    +0.000 C 
ATOM     65  O9  UNK     0      -3.324  -0.061  -3.717  0.00  0.00    +0.000 OA
ATOM     66  C38 UNK     0      -2.133   1.982  -3.561  0.00  0.00    +0.000 C 
ENDBRANCH  63  64
ENDBRANCH   4  63
TORSDOF 17
