REMARK  Name = C:\Users\Maximilian\Desktop\Conformers\converted_pdb\conformers_pdb\Paclitaxel_conf_60.pdb
REMARK  23 active torsions:
REMARK  status: ('A' for Active; 'I' for Inactive)
REMARK    1  A    between atoms: C17_4  and  O2_61
REMARK    2  A    between atoms: C18_5  and  C29_16
REMARK    3  A    between atoms: C20_7  and  O3_52
REMARK    4  A    between atoms: C21_8  and  O4_46
REMARK    5  A    between atoms: C22_9  and  O5_65
REMARK    6  A    between atoms: C24_11  and  C33_20
REMARK    7  A    between atoms: C24_11  and  C34_21
REMARK    8  A    between atoms: C30_17  and  O6_48
REMARK    9  A    between atoms: C31_18  and  O8_23
REMARK   10  A    between atoms: C32_19  and  C35_22
REMARK   11  A    between atoms: O8_23  and  C40_24
REMARK   12  A    between atoms: C40_24  and  C42_26
REMARK   13  A    between atoms: C42_26  and  O13_27
REMARK   14  A    between atoms: C42_26  and  C46_29
REMARK   15  A    between atoms: C46_29  and  N15_30
REMARK   16  A    between atoms: C46_29  and  C50_40
REMARK   17  A    between atoms: C53_32  and  C56_34
REMARK   18  A    between atoms: O6_48  and  C39_49
REMARK   19  A    between atoms: C39_49  and  C43_50
REMARK   20  A    between atoms: O3_52  and  C37_53
REMARK   21  A    between atoms: C37_53  and  C41_55
REMARK   22  A    between atoms: O2_61  and  C36_62
REMARK   23  A    between atoms: C36_62  and  C38_64
REMARK                            x       y       z     vdW  Elec       q    Type
REMARK                         _______ _______ _______ _____ _____    ______ ____
ROOT
ATOM      1  O1  UNK     0      -5.199   1.170   2.206  0.00  0.00    +0.000 OA
ATOM      2  O7  UNK     0       0.177   3.130   0.638  0.00  0.00    +0.000 OA
ATOM      3  C16 UNK     0      -2.327   0.826   0.361  0.00  0.00    +0.000 C 
ATOM      4  C17 UNK     0      -3.348   0.344   1.495  0.00  0.00    +0.000 C 
ATOM      5  C18 UNK     0      -2.104   2.422   0.346  0.00  0.00    +0.000 C 
ATOM      6  C19 UNK     0      -3.846   1.278   2.611  0.00  0.00    +0.000 C 
ATOM      7  C20 UNK     0      -2.657   0.020  -1.012  0.00  0.00    +0.000 C 
ATOM      8  C21 UNK     0      -1.501  -0.567  -1.959  0.00  0.00    +0.000 C 
ATOM      9  C22 UNK     0      -2.134   2.953   1.841  0.00  0.00    +0.000 C 
ATOM     10  C23 UNK     0      -3.445   2.745   2.570  0.00  0.00    +0.000 C 
ATOM     11  C24 UNK     0      -0.814   0.496  -2.887  0.00  0.00    +0.000 C 
ATOM     12  C25 UNK     0      -4.834   0.362   1.115  0.00  0.00    +0.000 C 
ATOM     13  C26 UNK     0      -0.687   2.827  -0.178  0.00  0.00    +0.000 C 
ATOM     14  C27 UNK     0      -0.431  -1.364  -1.105  0.00  0.00    +0.000 C 
ATOM     15  C28 UNK     0       0.080   1.357  -1.988  0.00  0.00    +0.000 C 
ATOM     16  C29 UNK     0      -3.212   3.160  -0.456  0.00  0.00    +0.000 C 
ATOM     17  C30 UNK     0      -0.205   2.802  -1.613  0.00  0.00    +0.000 C 
ATOM     18  C31 UNK     0       1.013  -0.785  -1.068  0.00  0.00    +0.000 C 
ATOM     19  C32 UNK     0       1.061   0.713  -1.285  0.00  0.00    +0.000 C 
ATOM     20  C33 UNK     0      -1.853   1.271  -3.759  0.00  0.00    +0.000 C 
ATOM     21  C34 UNK     0       0.096  -0.204  -3.962  0.00  0.00    +0.000 C 
ATOM     22  C35 UNK     0       2.347   1.427  -0.905  0.00  0.00    +0.000 C 
ENDROOT
BRANCH   8  23
ATOM     23  O4  UNK     0      -2.113  -1.474  -2.864  0.00  0.00    +0.000 OA
ATOM     24  H84 UNK     0      -2.281  -2.348  -2.425  0.00  0.00    +0.000 HD
ENDBRANCH   8  23
BRANCH   9  25
ATOM     25  O5  UNK     0      -1.756   4.309   1.946  0.00  0.00    +0.000 OA
ATOM     26  H85 UNK     0      -2.487   4.878   1.579  0.00  0.00    +0.000 HD
ENDBRANCH   9  25
BRANCH  18  27
ATOM     27  O8  UNK     0       1.638  -1.111   0.180  0.00  0.00    +0.000 OA
BRANCH  27  28
ATOM     28  C40 UNK     0       2.128  -2.395   0.470  0.00  0.00    +0.000 C 
ATOM     29  O12 UNK     0       1.758  -3.392  -0.207  0.00  0.00    +0.000 OA
BRANCH  28  30
ATOM     30  C42 UNK     0       3.158  -2.587   1.551  0.00  0.00    +0.000 C 
BRANCH  30  31
ATOM     31  O13 UNK     0       2.805  -1.872   2.707  0.00  0.00    +0.000 OA
ATOM     32 1H10 UNK     0       1.985  -2.293   3.073  0.00  0.00    +0.000 HD
ENDBRANCH  30  31
BRANCH  30  33
ATOM     33  C46 UNK     0       4.552  -2.154   1.040  0.00  0.00    +0.000 C 
BRANCH  33  34
ATOM     34  C50 UNK     0       5.652  -2.708   1.921  0.00  0.00    +0.000 A 
ATOM     35  C52 UNK     0       5.978  -2.094   3.146  0.00  0.00    +0.000 A 
ATOM     36  C55 UNK     0       7.004  -2.611   3.945  0.00  0.00    +0.000 A 
ATOM     37  C57 UNK     0       7.701  -3.751   3.536  0.00  0.00    +0.000 A 
ATOM     38  C54 UNK     0       7.377  -4.375   2.329  0.00  0.00    +0.000 A 
ATOM     39  C51 UNK     0       6.357  -3.858   1.525  0.00  0.00    +0.000 A 
ENDBRANCH  33  34
BRANCH  33  40
ATOM     40  N15 UNK     0       4.669  -0.695   0.941  0.00  0.00    +0.000 N 
ATOM     41 3H10 UNK     0       3.964  -0.092   1.424  0.00  0.00    +0.000 HD
ATOM     42  C53 UNK     0       5.715  -0.061   0.186  0.00  0.00    +0.000 C 
ATOM     43  O14 UNK     0       6.490  -0.763  -0.521  0.00  0.00    +0.000 OA
BRANCH  42  44
ATOM     44  C56 UNK     0       5.876   1.411   0.195  0.00  0.00    +0.000 A 
ATOM     45  C59 UNK     0       5.483   2.182   1.308  0.00  0.00    +0.000 A 
ATOM     46  C61 UNK     0       5.632   3.571   1.293  0.00  0.00    +0.000 A 
ATOM     47  C62 UNK     0       6.183   4.205   0.176  0.00  0.00    +0.000 A 
ATOM     48  C60 UNK     0       6.582   3.453  -0.931  0.00  0.00    +0.000 A 
ATOM     49  C58 UNK     0       6.443   2.061  -0.918  0.00  0.00    +0.000 A 
ENDBRANCH  42  44
ENDBRANCH  33  40
ENDBRANCH  30  33
ENDBRANCH  28  30
ENDBRANCH  27  28
ENDBRANCH  18  27
BRANCH  17  50
ATOM     50  O6  UNK     0      -1.078   3.507  -2.490  0.00  0.00    +0.000 OA
BRANCH  50  51
ATOM     51  C39 UNK     0      -1.251   4.894  -2.459  0.00  0.00    +0.000 C 
ATOM     52  C43 UNK     0      -2.206   5.541  -3.403  0.00  0.00    +0.000 C 
ATOM     53  O11 UNK     0      -0.623   5.602  -1.626  0.00  0.00    +0.000 OA
ENDBRANCH  50  51
ENDBRANCH  17  50
BRANCH   7  54
ATOM     54  O3  UNK     0      -3.452  -1.135  -0.684  0.00  0.00    +0.000 OA
BRANCH  54  55
ATOM     55  C37 UNK     0      -4.598  -1.559  -1.381  0.00  0.00    +0.000 C 
ATOM     56  O10 UNK     0      -5.114  -0.825  -2.270  0.00  0.00    +0.000 OA
BRANCH  55  57
ATOM     57  C41 UNK     0      -5.183  -2.879  -1.070  0.00  0.00    +0.000 A 
ATOM     58  C45 UNK     0      -4.468  -3.802  -0.286  0.00  0.00    +0.000 A 
ATOM     59  C48 UNK     0      -5.007  -5.063  -0.010  0.00  0.00    +0.000 A 
ATOM     60  C49 UNK     0      -6.261  -5.412  -0.515  0.00  0.00    +0.000 A 
ATOM     61  C47 UNK     0      -6.979  -4.504  -1.294  0.00  0.00    +0.000 A 
ATOM     62  C44 UNK     0      -6.444  -3.243  -1.578  0.00  0.00    +0.000 A 
ENDBRANCH  55  57
ENDBRANCH  54  55
ENDBRANCH   7  54
BRANCH   4  63
ATOM     63  O2  UNK     0      -2.905  -0.935   2.007  0.00  0.00    +0.000 OA
BRANCH  63  64
ATOM     64  C36 UNK     0      -3.568  -1.793   2.903  0.00  0.00    +0.000 C 
ATOM     65  O9  UNK     0      -4.683  -1.491   3.408  0.00  0.00    +0.000 OA
ATOM     66  C38 UNK     0      -2.934  -3.092   3.258  0.00  0.00    +0.000 C 
ENDBRANCH  63  64
ENDBRANCH   4  63
TORSDOF 17
