REMARK  Name = C:\Users\Maximilian\Desktop\Conformers\converted_pdb\conformers_pdb\Paclitaxel_conf_87.pdb
REMARK  23 active torsions:
REMARK  status: ('A' for Active; 'I' for Inactive)
REMARK    1  A    between atoms: C17_4  and  O2_61
REMARK    2  A    between atoms: C18_5  and  C29_16
REMARK    3  A    between atoms: C20_7  and  O3_52
REMARK    4  A    between atoms: C21_8  and  O4_46
REMARK    5  A    between atoms: C22_9  and  O5_65
REMARK    6  A    between atoms: C24_11  and  C33_20
REMARK    7  A    between atoms: C24_11  and  C34_21
REMARK    8  A    between atoms: C30_17  and  O6_48
REMARK    9  A    between atoms: C31_18  and  O8_23
REMARK   10  A    between atoms: C32_19  and  C35_22
REMARK   11  A    between atoms: O8_23  and  C40_24
REMARK   12  A    between atoms: C40_24  and  C42_26
REMARK   13  A    between atoms: C42_26  and  O13_27
REMARK   14  A    between atoms: C42_26  and  C46_29
REMARK   15  A    between atoms: C46_29  and  N15_30
REMARK   16  A    between atoms: C46_29  and  C50_40
REMARK   17  A    between atoms: C53_32  and  C56_34
REMARK   18  A    between atoms: O6_48  and  C39_49
REMARK   19  A    between atoms: C39_49  and  C43_50
REMARK   20  A    between atoms: O3_52  and  C37_53
REMARK   21  A    between atoms: C37_53  and  C41_55
REMARK   22  A    between atoms: O2_61  and  C36_62
REMARK   23  A    between atoms: C36_62  and  C38_64
REMARK                            x       y       z     vdW  Elec       q    Type
REMARK                         _______ _______ _______ _____ _____    ______ ____
ROOT
ATOM      1  O1  UNK     0      -5.036  -0.633  -1.969  0.00  0.00    +0.000 OA
ATOM      2  O7  UNK     0      -2.868  -2.820   3.192  0.00  0.00    +0.000 OA
ATOM      3  C16 UNK     0      -2.616  -0.426   0.385  0.00  0.00    +0.000 C 
ATOM      4  C17 UNK     0      -3.164  -0.150  -1.075  0.00  0.00    +0.000 C 
ATOM      5  C18 UNK     0      -3.147  -1.774   1.053  0.00  0.00    +0.000 C 
ATOM      6  C19 UNK     0      -3.796  -1.300  -1.872  0.00  0.00    +0.000 C 
ATOM      7  C20 UNK     0      -2.609   0.886   1.300  0.00  0.00    +0.000 C 
ATOM      8  C21 UNK     0      -1.242   1.342   1.975  0.00  0.00    +0.000 C 
ATOM      9  C22 UNK     0      -3.044  -2.904  -0.021  0.00  0.00    +0.000 C 
ATOM     10  C23 UNK     0      -3.985  -2.672  -1.206  0.00  0.00    +0.000 C 
ATOM     11  C24 UNK     0      -0.639   0.286   2.985  0.00  0.00    +0.000 C 
ATOM     12  C25 UNK     0      -4.560   0.455  -1.212  0.00  0.00    +0.000 C 
ATOM     13  C26 UNK     0      -2.295  -2.256   2.259  0.00  0.00    +0.000 C 
ATOM     14  C27 UNK     0      -0.200   1.705   0.841  0.00  0.00    +0.000 C 
ATOM     15  C28 UNK     0      -0.164  -0.908   2.131  0.00  0.00    +0.000 C 
ATOM     16  C29 UNK     0      -4.625  -1.619   1.537  0.00  0.00    +0.000 C 
ATOM     17  C30 UNK     0      -0.780  -2.293   2.271  0.00  0.00    +0.000 C 
ATOM     18  C31 UNK     0       1.037   0.763   0.694  0.00  0.00    +0.000 C 
ATOM     19  C32 UNK     0       0.737  -0.667   1.123  0.00  0.00    +0.000 C 
ATOM     20  C33 UNK     0      -1.662  -0.053   4.118  0.00  0.00    +0.000 C 
ATOM     21  C34 UNK     0       0.602   0.842   3.771  0.00  0.00    +0.000 C 
ATOM     22  C35 UNK     0       1.444  -1.795   0.400  0.00  0.00    +0.000 C 
ENDROOT
BRANCH   8  23
ATOM     23  O4  UNK     0      -1.562   2.526   2.690  0.00  0.00    +0.000 OA
ATOM     24  H84 UNK     0      -0.741   2.921   3.071  0.00  0.00    +0.000 HD
ENDBRANCH   8  23
BRANCH   9  25
ATOM     25  O5  UNK     0      -3.244  -4.187   0.527  0.00  0.00    +0.000 OA
ATOM     26  H85 UNK     0      -4.215  -4.305   0.710  0.00  0.00    +0.000 HD
ENDBRANCH   9  25
BRANCH  18  27
ATOM     27  O8  UNK     0       1.501   0.789  -0.660  0.00  0.00    +0.000 OA
BRANCH  27  28
ATOM     28  C40 UNK     0       2.189   1.880  -1.217  0.00  0.00    +0.000 C 
ATOM     29  O12 UNK     0       2.217   2.992  -0.624  0.00  0.00    +0.000 OA
BRANCH  28  30
ATOM     30  C42 UNK     0       2.980   1.703  -2.483  0.00  0.00    +0.000 C 
BRANCH  30  31
ATOM     31  O13 UNK     0       2.380   0.721  -3.286  0.00  0.00    +0.000 OA
ATOM     32 1H10 UNK     0       1.863   1.197  -3.985  0.00  0.00    +0.000 HD
ENDBRANCH  30  31
BRANCH  30  33
ATOM     33  C46 UNK     0       4.436   1.305  -2.155  0.00  0.00    +0.000 C 
BRANCH  33  34
ATOM     34  C50 UNK     0       5.295   1.300  -3.404  0.00  0.00    +0.000 A 
ATOM     35  C52 UNK     0       5.228   0.240  -4.331  0.00  0.00    +0.000 A 
ATOM     36  C55 UNK     0       5.991   0.271  -5.502  0.00  0.00    +0.000 A 
ATOM     37  C57 UNK     0       6.835   1.356  -5.757  0.00  0.00    +0.000 A 
ATOM     38  C54 UNK     0       6.906   2.413  -4.849  0.00  0.00    +0.000 A 
ATOM     39  C51 UNK     0       6.141   2.389  -3.680  0.00  0.00    +0.000 A 
ENDBRANCH  33  34
BRANCH  33  40
ATOM     40  N15 UNK     0       4.495  -0.003  -1.483  0.00  0.00    +0.000 N 
ATOM     41 3H10 UNK     0       3.871  -0.768  -1.832  0.00  0.00    +0.000 HD
ATOM     42  C53 UNK     0       5.372  -0.255  -0.367  0.00  0.00    +0.000 C 
ATOM     43  O14 UNK     0       6.200   0.626   0.001  0.00  0.00    +0.000 OA
BRANCH  42  44
ATOM     44  C56 UNK     0       5.292  -1.521   0.397  0.00  0.00    +0.000 A 
ATOM     45  C59 UNK     0       4.903  -2.725  -0.221  0.00  0.00    +0.000 A 
ATOM     46  C61 UNK     0       4.804  -3.903   0.526  0.00  0.00    +0.000 A 
ATOM     47  C62 UNK     0       5.110  -3.899   1.889  0.00  0.00    +0.000 A 
ATOM     48  C60 UNK     0       5.521  -2.714   2.505  0.00  0.00    +0.000 A 
ATOM     49  C58 UNK     0       5.618  -1.532   1.764  0.00  0.00    +0.000 A 
ENDBRANCH  42  44
ENDBRANCH  33  40
ENDBRANCH  30  33
ENDBRANCH  28  30
ENDBRANCH  27  28
ENDBRANCH  18  27
BRANCH  17  50
ATOM     50  O6  UNK     0      -0.290  -2.888   3.478  0.00  0.00    +0.000 OA
BRANCH  50  51
ATOM     51  C39 UNK     0       0.178  -4.207   3.568  0.00  0.00    +0.000 C 
ATOM     52  C43 UNK     0       0.626  -4.735   4.889  0.00  0.00    +0.000 C 
ATOM     53  O11 UNK     0       0.226  -4.953   2.550  0.00  0.00    +0.000 OA
ENDBRANCH  50  51
ENDBRANCH  17  50
BRANCH   7  54
ATOM     54  O3  UNK     0      -3.091   2.007   0.540  0.00  0.00    +0.000 OA
BRANCH  54  55
ATOM     55  C37 UNK     0      -4.037   2.936   0.996  0.00  0.00    +0.000 C 
ATOM     56  O10 UNK     0      -4.424   2.924   2.200  0.00  0.00    +0.000 OA
BRANCH  55  57
ATOM     57  C41 UNK     0      -4.598   3.914   0.040  0.00  0.00    +0.000 A 
ATOM     58  C45 UNK     0      -3.957   4.150  -1.191  0.00  0.00    +0.000 A 
ATOM     59  C48 UNK     0      -4.510   5.045  -2.115  0.00  0.00    +0.000 A 
ATOM     60  C49 UNK     0      -5.695   5.718  -1.812  0.00  0.00    +0.000 A 
ATOM     61  C47 UNK     0      -6.335   5.498  -0.589  0.00  0.00    +0.000 A 
ATOM     62  C44 UNK     0      -5.793   4.598   0.332  0.00  0.00    +0.000 A 
ENDBRANCH  55  57
ENDBRANCH  54  55
ENDBRANCH   7  54
BRANCH   4  63
ATOM     63  O2  UNK     0      -2.147   0.526  -1.847  0.00  0.00    +0.000 OA
BRANCH  63  64
ATOM     64  C36 UNK     0      -2.205   0.859  -3.209  0.00  0.00    +0.000 C 
ATOM     65  O9  UNK     0      -3.223   1.413  -3.706  0.00  0.00    +0.000 OA
ATOM     66  C38 UNK     0      -1.034   0.522  -4.081  0.00  0.00    +0.000 C 
ENDBRANCH  63  64
ENDBRANCH   4  63
TORSDOF 17
