REMARK  Name = C:\Users\Maximilian\Desktop\Conformers\converted_pdb\conformers_pdb\Paclitaxel_conf_80.pdb
REMARK  23 active torsions:
REMARK  status: ('A' for Active; 'I' for Inactive)
REMARK    1  A    between atoms: C17_4  and  O2_61
REMARK    2  A    between atoms: C18_5  and  C29_16
REMARK    3  A    between atoms: C20_7  and  O3_52
REMARK    4  A    between atoms: C21_8  and  O4_46
REMARK    5  A    between atoms: C22_9  and  O5_65
REMARK    6  A    between atoms: C24_11  and  C33_20
REMARK    7  A    between atoms: C24_11  and  C34_21
REMARK    8  A    between atoms: C30_17  and  O6_48
REMARK    9  A    between atoms: C31_18  and  O8_23
REMARK   10  A    between atoms: C32_19  and  C35_22
REMARK   11  A    between atoms: O8_23  and  C40_24
REMARK   12  A    between atoms: C40_24  and  C42_26
REMARK   13  A    between atoms: C42_26  and  O13_27
REMARK   14  A    between atoms: C42_26  and  C46_29
REMARK   15  A    between atoms: C46_29  and  N15_30
REMARK   16  A    between atoms: C46_29  and  C50_40
REMARK   17  A    between atoms: C53_32  and  C56_34
REMARK   18  A    between atoms: O6_48  and  C39_49
REMARK   19  A    between atoms: C39_49  and  C43_50
REMARK   20  A    between atoms: O3_52  and  C37_53
REMARK   21  A    between atoms: C37_53  and  C41_55
REMARK   22  A    between atoms: O2_61  and  C36_62
REMARK   23  A    between atoms: C36_62  and  C38_64
REMARK                            x       y       z     vdW  Elec       q    Type
REMARK                         _______ _______ _______ _____ _____    ______ ____
ROOT
ATOM      1  O1  UNK     0      -5.557   1.063  -1.877  0.00  0.00    +0.000 OA
ATOM      2  O7  UNK     0      -2.833  -4.036   0.057  0.00  0.00    +0.000 OA
ATOM      3  C16 UNK     0      -2.915  -0.200  -0.043  0.00  0.00    +0.000 C 
ATOM      4  C17 UNK     0      -3.583   0.700  -1.195  0.00  0.00    +0.000 C 
ATOM      5  C18 UNK     0      -3.511  -1.735   0.044  0.00  0.00    +0.000 C 
ATOM      6  C19 UNK     0      -4.557   0.152  -2.239  0.00  0.00    +0.000 C 
ATOM      7  C20 UNK     0      -2.632   0.722   1.280  0.00  0.00    +0.000 C 
ATOM      8  C21 UNK     0      -1.166   0.688   1.931  0.00  0.00    +0.000 C 
ATOM      9  C22 UNK     0      -4.066  -2.143  -1.404  0.00  0.00    +0.000 C 
ATOM     10  C23 UNK     0      -5.123  -1.211  -1.968  0.00  0.00    +0.000 C 
ATOM     11  C24 UNK     0      -0.811  -0.729   2.507  0.00  0.00    +0.000 C 
ATOM     12  C25 UNK     0      -4.793   1.548  -0.821  0.00  0.00    +0.000 C 
ATOM     13  C26 UNK     0      -2.510  -2.914   0.400  0.00  0.00    +0.000 C 
ATOM     14  C27 UNK     0      -0.087   1.202   0.879  0.00  0.00    +0.000 C 
ATOM     15  C28 UNK     0      -0.485  -1.627   1.295  0.00  0.00    +0.000 C 
ATOM     16  C29 UNK     0      -4.693  -1.845   1.069  0.00  0.00    +0.000 C 
ATOM     17  C30 UNK     0      -1.162  -2.949   1.118  0.00  0.00    +0.000 C 
ATOM     18  C31 UNK     0       1.021   0.187   0.573  0.00  0.00    +0.000 C 
ATOM     19  C32 UNK     0       0.374  -1.162   0.337  0.00  0.00    +0.000 C 
ATOM     20  C33 UNK     0      -1.978  -1.235   3.418  0.00  0.00    +0.000 C 
ATOM     21  C34 UNK     0       0.427  -0.666   3.465  0.00  0.00    +0.000 C 
ATOM     22  C35 UNK     0       0.624  -1.903  -0.970  0.00  0.00    +0.000 C 
ENDROOT
BRANCH   8  23
ATOM     23  O4  UNK     0      -1.180   1.540   3.063  0.00  0.00    +0.000 OA
ATOM     24  H84 UNK     0      -0.740   2.409   2.885  0.00  0.00    +0.000 HD
ENDBRANCH   8  23
BRANCH   9  25
ATOM     25  O5  UNK     0      -4.584  -3.464  -1.451  0.00  0.00    +0.000 OA
ATOM     26  H85 UNK     0      -5.559  -3.479  -1.264  0.00  0.00    +0.000 HD
ENDBRANCH   9  25
BRANCH  18  27
ATOM     27  O8  UNK     0       1.833   0.627  -0.513  0.00  0.00    +0.000 OA
BRANCH  27  28
ATOM     28  C40 UNK     0       3.023   1.329  -0.255  0.00  0.00    +0.000 C 
ATOM     29  O12 UNK     0       3.135   2.054   0.779  0.00  0.00    +0.000 OA
BRANCH  28  30
ATOM     30  C42 UNK     0       4.230   1.069  -1.099  0.00  0.00    +0.000 C 
BRANCH  30  31
ATOM     31  O13 UNK     0       3.946   1.314  -2.453  0.00  0.00    +0.000 OA
ATOM     32 1H10 UNK     0       3.189   0.725  -2.713  0.00  0.00    +0.000 HD
ENDBRANCH  30  31
BRANCH  30  33
ATOM     33  C46 UNK     0       4.741  -0.392  -0.882  0.00  0.00    +0.000 C 
BRANCH  33  34
ATOM     34  C50 UNK     0       4.974  -0.713   0.588  0.00  0.00    +0.000 A 
ATOM     35  C52 UNK     0       4.270  -1.766   1.208  0.00  0.00    +0.000 A 
ATOM     36  C55 UNK     0       4.502  -2.077   2.552  0.00  0.00    +0.000 A 
ATOM     37  C57 UNK     0       5.404  -1.329   3.296  0.00  0.00    +0.000 A 
ATOM     38  C54 UNK     0       6.109  -0.291   2.696  0.00  0.00    +0.000 A 
ATOM     39  C51 UNK     0       5.896   0.024   1.350  0.00  0.00    +0.000 A 
ENDBRANCH  33  34
BRANCH  33  40
ATOM     40  N15 UNK     0       5.967  -0.648  -1.638  0.00  0.00    +0.000 N 
ATOM     41 3H10 UNK     0       6.872  -0.795  -1.142  0.00  0.00    +0.000 HD
ATOM     42  C53 UNK     0       5.967  -0.640  -3.072  0.00  0.00    +0.000 C 
ATOM     43  O14 UNK     0       5.055  -1.253  -3.701  0.00  0.00    +0.000 OA
BRANCH  42  44
ATOM     44  C56 UNK     0       6.963   0.149  -3.829  0.00  0.00    +0.000 A 
ATOM     45  C59 UNK     0       6.807   0.319  -5.219  0.00  0.00    +0.000 A 
ATOM     46  C61 UNK     0       7.711   1.088  -5.949  0.00  0.00    +0.000 A 
ATOM     47  C62 UNK     0       8.793   1.695  -5.306  0.00  0.00    +0.000 A 
ATOM     48  C60 UNK     0       8.974   1.529  -3.932  0.00  0.00    +0.000 A 
ATOM     49  C58 UNK     0       8.052   0.778  -3.189  0.00  0.00    +0.000 A 
ENDBRANCH  42  44
ENDBRANCH  33  40
ENDBRANCH  30  33
ENDBRANCH  28  30
ENDBRANCH  27  28
ENDBRANCH  18  27
BRANCH  17  50
ATOM     50  O6  UNK     0      -1.279  -3.627   2.374  0.00  0.00    +0.000 OA
BRANCH  50  51
ATOM     51  C39 UNK     0      -1.302  -5.020   2.524  0.00  0.00    +0.000 C 
ATOM     52  C43 UNK     0      -1.405  -5.589   3.895  0.00  0.00    +0.000 C 
ATOM     53  O11 UNK     0      -1.231  -5.790   1.524  0.00  0.00    +0.000 OA
ENDBRANCH  50  51
ENDBRANCH  17  50
BRANCH   7  54
ATOM     54  O3  UNK     0      -2.945   2.101   0.990  0.00  0.00    +0.000 OA
BRANCH  54  55
ATOM     55  C37 UNK     0      -3.496   3.041   1.896  0.00  0.00    +0.000 C 
ATOM     56  O10 UNK     0      -3.059   3.173   3.061  0.00  0.00    +0.000 OA
BRANCH  55  57
ATOM     57  C41 UNK     0      -4.573   3.956   1.463  0.00  0.00    +0.000 A 
ATOM     58  C45 UNK     0      -4.441   4.715   0.288  0.00  0.00    +0.000 A 
ATOM     59  C48 UNK     0      -5.542   5.437  -0.192  0.00  0.00    +0.000 A 
ATOM     60  C49 UNK     0      -6.745   5.447   0.531  0.00  0.00    +0.000 A 
ATOM     61  C47 UNK     0      -6.832   4.782   1.748  0.00  0.00    +0.000 A 
ATOM     62  C44 UNK     0      -5.749   4.045   2.218  0.00  0.00    +0.000 A 
ENDBRANCH  55  57
ENDBRANCH  54  55
ENDBRANCH   7  54
BRANCH   4  63
ATOM     63  O2  UNK     0      -2.619   1.545  -1.825  0.00  0.00    +0.000 OA
BRANCH  63  64
ATOM     64  C36 UNK     0      -1.587   1.090  -2.654  0.00  0.00    +0.000 C 
ATOM     65  O9  UNK     0      -1.546  -0.110  -3.040  0.00  0.00    +0.000 OA
ATOM     66  C38 UNK     0      -0.553   2.049  -3.121  0.00  0.00    +0.000 C 
ENDBRANCH  63  64
ENDBRANCH   4  63
TORSDOF 17
