REMARK  Name = C:\Users\Maximilian\Desktop\Conformers\converted_pdb\conformers_pdb\Paclitaxel_conf_83.pdb
REMARK  23 active torsions:
REMARK  status: ('A' for Active; 'I' for Inactive)
REMARK    1  A    between atoms: C17_4  and  O2_61
REMARK    2  A    between atoms: C18_5  and  C29_16
REMARK    3  A    between atoms: C20_7  and  O3_52
REMARK    4  A    between atoms: C21_8  and  O4_46
REMARK    5  A    between atoms: C22_9  and  O5_65
REMARK    6  A    between atoms: C24_11  and  C33_20
REMARK    7  A    between atoms: C24_11  and  C34_21
REMARK    8  A    between atoms: C30_17  and  O6_48
REMARK    9  A    between atoms: C31_18  and  O8_23
REMARK   10  A    between atoms: C32_19  and  C35_22
REMARK   11  A    between atoms: O8_23  and  C40_24
REMARK   12  A    between atoms: C40_24  and  C42_26
REMARK   13  A    between atoms: C42_26  and  O13_27
REMARK   14  A    between atoms: C42_26  and  C46_29
REMARK   15  A    between atoms: C46_29  and  N15_30
REMARK   16  A    between atoms: C46_29  and  C50_40
REMARK   17  A    between atoms: C53_32  and  C56_34
REMARK   18  A    between atoms: O6_48  and  C39_49
REMARK   19  A    between atoms: C39_49  and  C43_50
REMARK   20  A    between atoms: O3_52  and  C37_53
REMARK   21  A    between atoms: C37_53  and  C41_55
REMARK   22  A    between atoms: O2_61  and  C36_62
REMARK   23  A    between atoms: C36_62  and  C38_64
REMARK                            x       y       z     vdW  Elec       q    Type
REMARK                         _______ _______ _______ _____ _____    ______ ____
ROOT
ATOM      1  O1  UNK     0      -4.433  -0.427  -2.518  0.00  0.00    +0.000 OA
ATOM      2  O7  UNK     0      -4.573  -2.143   3.123  0.00  0.00    +0.000 OA
ATOM      3  C16 UNK     0      -2.697  -0.723   0.346  0.00  0.00    +0.000 C 
ATOM      4  C17 UNK     0      -2.763  -0.420  -1.203  0.00  0.00    +0.000 C 
ATOM      5  C18 UNK     0      -3.867  -1.666   0.880  0.00  0.00    +0.000 C 
ATOM      6  C19 UNK     0      -3.497  -1.409  -2.114  0.00  0.00    +0.000 C 
ATOM      7  C20 UNK     0      -2.374   0.567   1.224  0.00  0.00    +0.000 C 
ATOM      8  C21 UNK     0      -1.079   0.530   2.166  0.00  0.00    +0.000 C 
ATOM      9  C22 UNK     0      -3.883  -2.929  -0.038  0.00  0.00    +0.000 C 
ATOM     10  C23 UNK     0      -4.227  -2.628  -1.505  0.00  0.00    +0.000 C 
ATOM     11  C24 UNK     0      -1.186  -0.496   3.359  0.00  0.00    +0.000 C 
ATOM     12  C25 UNK     0      -3.833   0.548  -1.693  0.00  0.00    +0.000 C 
ATOM     13  C26 UNK     0      -3.638  -2.167   2.332  0.00  0.00    +0.000 C 
ATOM     14  C27 UNK     0       0.225   0.242   1.317  0.00  0.00    +0.000 C 
ATOM     15  C28 UNK     0      -1.159  -1.903   2.717  0.00  0.00    +0.000 C 
ATOM     16  C29 UNK     0      -5.258  -0.944   0.826  0.00  0.00    +0.000 C 
ATOM     17  C30 UNK     0      -2.353  -2.841   2.806  0.00  0.00    +0.000 C 
ATOM     18  C31 UNK     0       0.900  -1.144   1.525  0.00  0.00    +0.000 C 
ATOM     19  C32 UNK     0      -0.085  -2.228   1.932  0.00  0.00    +0.000 C 
ATOM     20  C33 UNK     0      -2.423  -0.200   4.270  0.00  0.00    +0.000 C 
ATOM     21  C34 UNK     0       0.036  -0.360   4.342  0.00  0.00    +0.000 C 
ATOM     22  C35 UNK     0       0.169  -3.649   1.467  0.00  0.00    +0.000 C 
ENDROOT
BRANCH   8  23
ATOM     23  O4  UNK     0      -0.960   1.805   2.767  0.00  0.00    +0.000 OA
ATOM     24  H84 UNK     0      -0.655   2.463   2.089  0.00  0.00    +0.000 HD
ENDBRANCH   8  23
BRANCH   9  25
ATOM     25  O5  UNK     0      -4.726  -3.939   0.469  0.00  0.00    +0.000 OA
ATOM     26  H85 UNK     0      -5.668  -3.651   0.353  0.00  0.00    +0.000 HD
ENDBRANCH   9  25
BRANCH  18  27
ATOM     27  O8  UNK     0       1.584  -1.513   0.322  0.00  0.00    +0.000 OA
BRANCH  27  28
ATOM     28  C40 UNK     0       2.933  -1.195   0.080  0.00  0.00    +0.000 C 
ATOM     29  O12 UNK     0       3.602  -0.532   0.925  0.00  0.00    +0.000 OA
BRANCH  28  30
ATOM     30  C42 UNK     0       3.589  -1.664  -1.193  0.00  0.00    +0.000 C 
BRANCH  30  31
ATOM     31  O13 UNK     0       4.683  -2.506  -0.920  0.00  0.00    +0.000 OA
ATOM     32 1H10 UNK     0       5.310  -2.015  -0.330  0.00  0.00    +0.000 HD
ENDBRANCH  30  31
BRANCH  30  33
ATOM     33  C46 UNK     0       3.978  -0.481  -2.118  0.00  0.00    +0.000 C 
BRANCH  33  34
ATOM     34  C50 UNK     0       4.621  -0.974  -3.400  0.00  0.00    +0.000 A 
ATOM     35  C52 UNK     0       5.997  -1.261  -3.466  0.00  0.00    +0.000 A 
ATOM     36  C55 UNK     0       6.566  -1.740  -4.650  0.00  0.00    +0.000 A 
ATOM     37  C57 UNK     0       5.768  -1.946  -5.777  0.00  0.00    +0.000 A 
ATOM     38  C54 UNK     0       4.397  -1.683  -5.719  0.00  0.00    +0.000 A 
ATOM     39  C51 UNK     0       3.825  -1.209  -4.535  0.00  0.00    +0.000 A 
ENDBRANCH  33  34
BRANCH  33  40
ATOM     40  N15 UNK     0       4.838   0.498  -1.440  0.00  0.00    +0.000 N 
ATOM     41 3H10 UNK     0       5.566   0.163  -0.769  0.00  0.00    +0.000 HD
ATOM     42  C53 UNK     0       4.805   1.895  -1.777  0.00  0.00    +0.000 C 
ATOM     43  O14 UNK     0       4.267   2.263  -2.859  0.00  0.00    +0.000 OA
BRANCH  42  44
ATOM     44  C56 UNK     0       5.406   2.913  -0.880  0.00  0.00    +0.000 A 
ATOM     45  C59 UNK     0       5.750   4.184  -1.383  0.00  0.00    +0.000 A 
ATOM     46  C61 UNK     0       6.292   5.157  -0.540  0.00  0.00    +0.000 A 
ATOM     47  C62 UNK     0       6.479   4.882   0.816  0.00  0.00    +0.000 A 
ATOM     48  C60 UNK     0       6.132   3.631   1.330  0.00  0.00    +0.000 A 
ATOM     49  C58 UNK     0       5.599   2.650   0.487  0.00  0.00    +0.000 A 
ENDBRANCH  42  44
ENDBRANCH  33  40
ENDBRANCH  30  33
ENDBRANCH  28  30
ENDBRANCH  27  28
ENDBRANCH  18  27
BRANCH  17  50
ATOM     50  O6  UNK     0      -2.462  -3.303   4.157  0.00  0.00    +0.000 OA
BRANCH  50  51
ATOM     51  C39 UNK     0      -3.234  -4.401   4.545  0.00  0.00    +0.000 C 
ATOM     52  C43 UNK     0      -3.289  -4.783   5.982  0.00  0.00    +0.000 C 
ATOM     53  O11 UNK     0      -3.839  -5.102   3.687  0.00  0.00    +0.000 OA
ENDBRANCH  50  51
ENDBRANCH  17  50
BRANCH   7  54
ATOM     54  O3  UNK     0      -2.251   1.708   0.362  0.00  0.00    +0.000 OA
BRANCH  54  55
ATOM     55  C37 UNK     0      -2.891   2.941   0.560  0.00  0.00    +0.000 C 
ATOM     56  O10 UNK     0      -3.657   3.115   1.548  0.00  0.00    +0.000 OA
BRANCH  55  57
ATOM     57  C41 UNK     0      -2.673   4.036  -0.407  0.00  0.00    +0.000 A 
ATOM     58  C45 UNK     0      -3.361   5.257  -0.281  0.00  0.00    +0.000 A 
ATOM     59  C48 UNK     0      -3.150   6.284  -1.207  0.00  0.00    +0.000 A 
ATOM     60  C49 UNK     0      -2.257   6.102  -2.266  0.00  0.00    +0.000 A 
ATOM     61  C47 UNK     0      -1.570   4.893  -2.400  0.00  0.00    +0.000 A 
ATOM     62  C44 UNK     0      -1.773   3.866  -1.474  0.00  0.00    +0.000 A 
ENDBRANCH  55  57
ENDBRANCH  54  55
ENDBRANCH   7  54
BRANCH   4  63
ATOM     63  O2  UNK     0      -1.449  -0.084  -1.694  0.00  0.00    +0.000 OA
BRANCH  63  64
ATOM     64  C36 UNK     0      -1.089   0.361  -2.978  0.00  0.00    +0.000 C 
ATOM     65  O9  UNK     0      -1.900   0.325  -3.944  0.00  0.00    +0.000 OA
ATOM     66  C38 UNK     0       0.280   0.895  -3.202  0.00  0.00    +0.000 C 
ENDBRANCH  63  64
ENDBRANCH   4  63
TORSDOF 17
