REMARK  Name = C:\Users\Maximilian\Desktop\Conformers\converted_pdb\conformers_pdb\Paclitaxel_conf_11.pdb
REMARK  23 active torsions:
REMARK  status: ('A' for Active; 'I' for Inactive)
REMARK    1  A    between atoms: C17_4  and  O2_61
REMARK    2  A    between atoms: C18_5  and  C29_16
REMARK    3  A    between atoms: C20_7  and  O3_52
REMARK    4  A    between atoms: C21_8  and  O4_46
REMARK    5  A    between atoms: C22_9  and  O5_65
REMARK    6  A    between atoms: C24_11  and  C33_20
REMARK    7  A    between atoms: C24_11  and  C34_21
REMARK    8  A    between atoms: C30_17  and  O6_48
REMARK    9  A    between atoms: C31_18  and  O8_23
REMARK   10  A    between atoms: C32_19  and  C35_22
REMARK   11  A    between atoms: O8_23  and  C40_24
REMARK   12  A    between atoms: C40_24  and  C42_26
REMARK   13  A    between atoms: C42_26  and  O13_27
REMARK   14  A    between atoms: C42_26  and  C46_29
REMARK   15  A    between atoms: C46_29  and  N15_30
REMARK   16  A    between atoms: C46_29  and  C50_40
REMARK   17  A    between atoms: C53_32  and  C56_34
REMARK   18  A    between atoms: O6_48  and  C39_49
REMARK   19  A    between atoms: C39_49  and  C43_50
REMARK   20  A    between atoms: O3_52  and  C37_53
REMARK   21  A    between atoms: C37_53  and  C41_55
REMARK   22  A    between atoms: O2_61  and  C36_62
REMARK   23  A    between atoms: C36_62  and  C38_64
REMARK                            x       y       z     vdW  Elec       q    Type
REMARK                         _______ _______ _______ _____ _____    ______ ____
ROOT
ATOM      1  O1  UNK     0      -4.957  -2.446  -1.177  0.00  0.00    +0.000 OA
ATOM      2  O7  UNK     0      -2.459  -2.345   4.139  0.00  0.00    +0.000 OA
ATOM      3  C16 UNK     0      -2.863  -0.789   0.792  0.00  0.00    +0.000 C 
ATOM      4  C17 UNK     0      -3.483  -1.010  -0.648  0.00  0.00    +0.000 C 
ATOM      5  C18 UNK     0      -3.267  -1.859   1.937  0.00  0.00    +0.000 C 
ATOM      6  C19 UNK     0      -3.546  -2.461  -1.097  0.00  0.00    +0.000 C 
ATOM      7  C20 UNK     0      -2.828   0.739   1.258  0.00  0.00    +0.000 C 
ATOM      8  C21 UNK     0      -1.399   1.390   1.586  0.00  0.00    +0.000 C 
ATOM      9  C22 UNK     0      -3.508  -3.315   1.337  0.00  0.00    +0.000 C 
ATOM     10  C23 UNK     0      -3.005  -3.496  -0.100  0.00  0.00    +0.000 C 
ATOM     11  C24 UNK     0      -0.567   0.675   2.731  0.00  0.00    +0.000 C 
ATOM     12  C25 UNK     0      -4.994  -1.084  -0.808  0.00  0.00    +0.000 C 
ATOM     13  C26 UNK     0      -2.138  -2.026   2.997  0.00  0.00    +0.000 C 
ATOM     14  C27 UNK     0      -0.543   1.469   0.262  0.00  0.00    +0.000 C 
ATOM     15  C28 UNK     0      -0.127  -0.688   2.145  0.00  0.00    +0.000 C 
ATOM     16  C29 UNK     0      -4.543  -1.413   2.745  0.00  0.00    +0.000 C 
ATOM     17  C30 UNK     0      -0.644  -2.021   2.687  0.00  0.00    +0.000 C 
ATOM     18  C31 UNK     0       0.768   0.635   0.222  0.00  0.00    +0.000 C 
ATOM     19  C32 UNK     0       0.616  -0.670   0.993  0.00  0.00    +0.000 C 
ATOM     20  C33 UNK     0      -1.359   0.585   4.072  0.00  0.00    +0.000 C 
ATOM     21  C34 UNK     0       0.721   1.501   3.108  0.00  0.00    +0.000 C 
ATOM     22  C35 UNK     0       1.274  -1.921   0.444  0.00  0.00    +0.000 C 
ENDROOT
BRANCH   8  23
ATOM     23  O4  UNK     0      -1.619   2.728   1.986  0.00  0.00    +0.000 OA
ATOM     24  H84 UNK     0      -2.270   2.737   2.734  0.00  0.00    +0.000 HD
ENDBRANCH   8  23
BRANCH   9  25
ATOM     25  O5  UNK     0      -4.834  -3.784   1.450  0.00  0.00    +0.000 OA
ATOM     26  H85 UNK     0      -5.440  -3.132   1.029  0.00  0.00    +0.000 HD
ENDBRANCH   9  25
BRANCH  18  27
ATOM     27  O8  UNK     0       1.151   0.385  -1.136  0.00  0.00    +0.000 OA
BRANCH  27  28
ATOM     28  C40 UNK     0       1.645   1.385  -1.991  0.00  0.00    +0.000 C 
ATOM     29  O12 UNK     0       1.417   2.602  -1.759  0.00  0.00    +0.000 OA
BRANCH  28  30
ATOM     30  C42 UNK     0       2.537   1.014  -3.139  0.00  0.00    +0.000 C 
BRANCH  30  31
ATOM     31  O13 UNK     0       2.202  -0.270  -3.599  0.00  0.00    +0.000 OA
ATOM     32 1H10 UNK     0       2.465  -0.315  -4.555  0.00  0.00    +0.000 HD
ENDBRANCH  30  31
BRANCH  30  33
ATOM     33  C46 UNK     0       4.015   1.086  -2.685  0.00  0.00    +0.000 C 
BRANCH  33  34
ATOM     34  C50 UNK     0       4.960   0.984  -3.868  0.00  0.00    +0.000 A 
ATOM     35  C52 UNK     0       5.434   2.157  -4.481  0.00  0.00    +0.000 A 
ATOM     36  C55 UNK     0       6.291   2.083  -5.580  0.00  0.00    +0.000 A 
ATOM     37  C57 UNK     0       6.676   0.840  -6.086  0.00  0.00    +0.000 A 
ATOM     38  C54 UNK     0       6.198  -0.335  -5.497  0.00  0.00    +0.000 A 
ATOM     39  C51 UNK     0       5.337  -0.266  -4.397  0.00  0.00    +0.000 A 
ENDBRANCH  33  34
BRANCH  33  40
ATOM     40  N15 UNK     0       4.322   0.053  -1.685  0.00  0.00    +0.000 N 
ATOM     41 3H10 UNK     0       3.733  -0.807  -1.665  0.00  0.00    +0.000 HD
ATOM     42  C53 UNK     0       5.385   0.200  -0.730  0.00  0.00    +0.000 C 
ATOM     43  O14 UNK     0       6.052   1.272  -0.705  0.00  0.00    +0.000 OA
BRANCH  42  44
ATOM     44  C56 UNK     0       5.686  -0.865   0.257  0.00  0.00    +0.000 A 
ATOM     45  C59 UNK     0       5.371  -2.214  -0.004  0.00  0.00    +0.000 A 
ATOM     46  C61 UNK     0       5.653  -3.203   0.945  0.00  0.00    +0.000 A 
ATOM     47  C62 UNK     0       6.261  -2.862   2.155  0.00  0.00    +0.000 A 
ATOM     48  C60 UNK     0       6.593  -1.532   2.418  0.00  0.00    +0.000 A 
ATOM     49  C58 UNK     0       6.310  -0.537   1.476  0.00  0.00    +0.000 A 
ENDBRANCH  42  44
ENDBRANCH  33  40
ENDBRANCH  30  33
ENDBRANCH  28  30
ENDBRANCH  27  28
ENDBRANCH  18  27
BRANCH  17  50
ATOM     50  O6  UNK     0       0.134  -2.356   3.838  0.00  0.00    +0.000 OA
BRANCH  50  51
ATOM     51  C39 UNK     0       0.236  -3.654   4.352  0.00  0.00    +0.000 C 
ATOM     52  C43 UNK     0       1.124  -3.910   5.523  0.00  0.00    +0.000 C 
ATOM     53  O11 UNK     0      -0.376  -4.615   3.810  0.00  0.00    +0.000 OA
ENDBRANCH  50  51
ENDBRANCH  17  50
BRANCH   7  54
ATOM     54  O3  UNK     0      -3.466   1.562   0.271  0.00  0.00    +0.000 OA
BRANCH  54  55
ATOM     55  C37 UNK     0      -4.206   2.715   0.560  0.00  0.00    +0.000 C 
ATOM     56  O10 UNK     0      -4.897   2.774   1.613  0.00  0.00    +0.000 OA
BRANCH  55  57
ATOM     57  C41 UNK     0      -4.155   3.867  -0.363  0.00  0.00    +0.000 A 
ATOM     58  C45 UNK     0      -5.026   4.960  -0.201  0.00  0.00    +0.000 A 
ATOM     59  C48 UNK     0      -4.948   6.061  -1.061  0.00  0.00    +0.000 A 
ATOM     60  C49 UNK     0      -3.998   6.083  -2.086  0.00  0.00    +0.000 A 
ATOM     61  C47 UNK     0      -3.124   5.006  -2.251  0.00  0.00    +0.000 A 
ATOM     62  C44 UNK     0      -3.198   3.904  -1.395  0.00  0.00    +0.000 A 
ENDBRANCH  55  57
ENDBRANCH  54  55
ENDBRANCH   7  54
BRANCH   4  63
ATOM     63  O2  UNK     0      -2.864  -0.151  -1.629  0.00  0.00    +0.000 OA
BRANCH  63  64
ATOM     64  C36 UNK     0      -3.207  -0.064  -2.988  0.00  0.00    +0.000 C 
ATOM     65  O9  UNK     0      -2.931  -1.000  -3.783  0.00  0.00    +0.000 OA
ATOM     66  C38 UNK     0      -3.798   1.194  -3.522  0.00  0.00    +0.000 C 
ENDBRANCH  63  64
ENDBRANCH   4  63
TORSDOF 17
