REMARK  Name = C:\Users\Maximilian\Desktop\Conformers\converted_pdb\conformers_pdb\Paclitaxel_conf_46.pdb
REMARK  23 active torsions:
REMARK  status: ('A' for Active; 'I' for Inactive)
REMARK    1  A    between atoms: C17_4  and  O2_61
REMARK    2  A    between atoms: C18_5  and  C29_16
REMARK    3  A    between atoms: C20_7  and  O3_52
REMARK    4  A    between atoms: C21_8  and  O4_46
REMARK    5  A    between atoms: C22_9  and  O5_65
REMARK    6  A    between atoms: C24_11  and  C33_20
REMARK    7  A    between atoms: C24_11  and  C34_21
REMARK    8  A    between atoms: C30_17  and  O6_48
REMARK    9  A    between atoms: C31_18  and  O8_23
REMARK   10  A    between atoms: C32_19  and  C35_22
REMARK   11  A    between atoms: O8_23  and  C40_24
REMARK   12  A    between atoms: C40_24  and  C42_26
REMARK   13  A    between atoms: C42_26  and  O13_27
REMARK   14  A    between atoms: C42_26  and  C46_29
REMARK   15  A    between atoms: C46_29  and  N15_30
REMARK   16  A    between atoms: C46_29  and  C50_40
REMARK   17  A    between atoms: C53_32  and  C56_34
REMARK   18  A    between atoms: O6_48  and  C39_49
REMARK   19  A    between atoms: C39_49  and  C43_50
REMARK   20  A    between atoms: O3_52  and  C37_53
REMARK   21  A    between atoms: C37_53  and  C41_55
REMARK   22  A    between atoms: O2_61  and  C36_62
REMARK   23  A    between atoms: C36_62  and  C38_64
REMARK                            x       y       z     vdW  Elec       q    Type
REMARK                         _______ _______ _______ _____ _____    ______ ____
ROOT
ATOM      1  O1  UNK     0      -7.110  -0.350   0.019  0.00  0.00    +0.000 OA
ATOM      2  O7  UNK     0      -1.855   0.124  -2.587  0.00  0.00    +0.000 OA
ATOM      3  C16 UNK     0      -3.793  -0.254   0.042  0.00  0.00    +0.000 C 
ATOM      4  C17 UNK     0      -5.154  -0.023   0.776  0.00  0.00    +0.000 C 
ATOM      5  C18 UNK     0      -3.877  -0.567  -1.537  0.00  0.00    +0.000 C 
ATOM      6  C19 UNK     0      -6.193   0.723  -0.078  0.00  0.00    +0.000 C 
ATOM      7  C20 UNK     0      -2.467  -0.439   0.930  0.00  0.00    +0.000 C 
ATOM      8  C21 UNK     0      -1.909  -1.831   1.496  0.00  0.00    +0.000 C 
ATOM      9  C22 UNK     0      -4.494   0.741  -2.168  0.00  0.00    +0.000 C 
ATOM     10  C23 UNK     0      -5.898   1.082  -1.576  0.00  0.00    +0.000 C 
ATOM     11  C24 UNK     0      -1.831  -3.005   0.466  0.00  0.00    +0.000 C 
ATOM     12  C25 UNK     0      -6.211  -1.114   0.798  0.00  0.00    +0.000 C 
ATOM     13  C26 UNK     0      -2.468  -0.830  -2.126  0.00  0.00    +0.000 C 
ATOM     14  C27 UNK     0      -0.456  -1.599   2.033  0.00  0.00    +0.000 C 
ATOM     15  C28 UNK     0      -1.063  -2.437  -0.743  0.00  0.00    +0.000 C 
ATOM     16  C29 UNK     0      -4.840  -1.701  -2.037  0.00  0.00    +0.000 C 
ATOM     17  C30 UNK     0      -1.718  -2.175  -2.107  0.00  0.00    +0.000 C 
ATOM     18  C31 UNK     0       0.668  -1.625   0.944  0.00  0.00    +0.000 C 
ATOM     19  C32 UNK     0       0.188  -1.921  -0.488  0.00  0.00    +0.000 C 
ATOM     20  C33 UNK     0      -3.248  -3.574   0.249  0.00  0.00    +0.000 C 
ATOM     21  C34 UNK     0      -1.052  -4.259   0.995  0.00  0.00    +0.000 C 
ATOM     22  C35 UNK     0       1.209  -1.761  -1.597  0.00  0.00    +0.000 C 
ENDROOT
BRANCH   8  23
ATOM     23  O4  UNK     0      -2.729  -2.243   2.575  0.00  0.00    +0.000 OA
ATOM     24  H84 UNK     0      -2.601  -1.611   3.330  0.00  0.00    +0.000 HD
ENDBRANCH   8  23
BRANCH   9  25
ATOM     25  O5  UNK     0      -4.584   0.628  -3.569  0.00  0.00    +0.000 OA
ATOM     26  H85 UNK     0      -4.751   1.540  -3.923  0.00  0.00    +0.000 HD
ENDBRANCH   9  25
BRANCH  18  27
ATOM     27  O8  UNK     0       1.379  -0.384   0.957  0.00  0.00    +0.000 OA
BRANCH  27  28
ATOM     28  C40 UNK     0       2.280  -0.028   1.969  0.00  0.00    +0.000 C 
ATOM     29  O12 UNK     0       2.380  -0.726   3.016  0.00  0.00    +0.000 OA
BRANCH  28  30
ATOM     30  C42 UNK     0       3.194   1.148   1.765  0.00  0.00    +0.000 C 
BRANCH  30  31
ATOM     31  O13 UNK     0       2.434   2.267   1.390  0.00  0.00    +0.000 OA
ATOM     32 1H10 UNK     0       1.956   2.575   2.205  0.00  0.00    +0.000 HD
ENDBRANCH  30  31
BRANCH  30  33
ATOM     33  C46 UNK     0       4.227   0.829   0.660  0.00  0.00    +0.000 C 
BRANCH  33  34
ATOM     34  C50 UNK     0       5.174  -0.269   1.111  0.00  0.00    +0.000 A 
ATOM     35  C52 UNK     0       5.006  -1.586   0.647  0.00  0.00    +0.000 A 
ATOM     36  C55 UNK     0       5.865  -2.602   1.077  0.00  0.00    +0.000 A 
ATOM     37  C57 UNK     0       6.895  -2.317   1.975  0.00  0.00    +0.000 A 
ATOM     38  C54 UNK     0       7.064  -1.014   2.452  0.00  0.00    +0.000 A 
ATOM     39  C51 UNK     0       6.203   0.004   2.031  0.00  0.00    +0.000 A 
ENDBRANCH  33  34
BRANCH  33  40
ATOM     40  N15 UNK     0       4.996   2.024   0.293  0.00  0.00    +0.000 N 
ATOM     41 3H10 UNK     0       4.948   2.869   0.906  0.00  0.00    +0.000 HD
ATOM     42  C53 UNK     0       5.815   2.051  -0.889  0.00  0.00    +0.000 C 
ATOM     43  O14 UNK     0       5.672   1.153  -1.762  0.00  0.00    +0.000 OA
BRANCH  42  44
ATOM     44  C56 UNK     0       6.820   3.120  -1.105  0.00  0.00    +0.000 A 
ATOM     45  C59 UNK     0       7.284   3.394  -2.405  0.00  0.00    +0.000 A 
ATOM     46  C61 UNK     0       8.252   4.380  -2.621  0.00  0.00    +0.000 A 
ATOM     47  C62 UNK     0       8.769   5.101  -1.543  0.00  0.00    +0.000 A 
ATOM     48  C60 UNK     0       8.325   4.832  -0.247  0.00  0.00    +0.000 A 
ATOM     49  C58 UNK     0       7.357   3.847  -0.025  0.00  0.00    +0.000 A 
ENDBRANCH  42  44
ENDBRANCH  33  40
ENDBRANCH  30  33
ENDBRANCH  28  30
ENDBRANCH  27  28
ENDBRANCH  18  27
BRANCH  17  50
ATOM     50  O6  UNK     0      -2.497  -3.285  -2.544  0.00  0.00    +0.000 OA
BRANCH  50  51
ATOM     51  C39 UNK     0      -2.842  -3.517  -3.881  0.00  0.00    +0.000 C 
ATOM     52  C43 UNK     0      -3.592  -4.755  -4.233  0.00  0.00    +0.000 C 
ATOM     53  O11 UNK     0      -2.515  -2.703  -4.785  0.00  0.00    +0.000 OA
ENDBRANCH  50  51
ENDBRANCH  17  50
BRANCH   7  54
ATOM     54  O3  UNK     0      -1.404   0.355   0.359  0.00  0.00    +0.000 OA
BRANCH  54  55
ATOM     55  C37 UNK     0      -1.263   1.743   0.586  0.00  0.00    +0.000 C 
ATOM     56  O10 UNK     0      -1.998   2.324   1.432  0.00  0.00    +0.000 OA
BRANCH  55  57
ATOM     57  C41 UNK     0      -0.257   2.534  -0.157  0.00  0.00    +0.000 A 
ATOM     58  C45 UNK     0      -0.080   3.906   0.111  0.00  0.00    +0.000 A 
ATOM     59  C48 UNK     0       0.894   4.641  -0.576  0.00  0.00    +0.000 A 
ATOM     60  C49 UNK     0       1.694   4.018  -1.537  0.00  0.00    +0.000 A 
ATOM     61  C47 UNK     0       1.517   2.663  -1.818  0.00  0.00    +0.000 A 
ATOM     62  C44 UNK     0       0.544   1.928  -1.134  0.00  0.00    +0.000 A 
ENDBRANCH  55  57
ENDBRANCH  54  55
ENDBRANCH   7  54
BRANCH   4  63
ATOM     63  O2  UNK     0      -4.955   0.595   2.066  0.00  0.00    +0.000 OA
BRANCH  63  64
ATOM     64  C36 UNK     0      -5.926   1.032   2.985  0.00  0.00    +0.000 C 
ATOM     65  O9  UNK     0      -7.160   0.904   2.760  0.00  0.00    +0.000 OA
ATOM     66  C38 UNK     0      -5.484   1.683   4.250  0.00  0.00    +0.000 C 
ENDBRANCH  63  64
ENDBRANCH   4  63
TORSDOF 17
