REMARK  Name = C:\Users\Maximilian\Desktop\Conformers\converted_pdb\conformers_pdb\Paclitaxel_conf_54.pdb
REMARK  23 active torsions:
REMARK  status: ('A' for Active; 'I' for Inactive)
REMARK    1  A    between atoms: C17_4  and  O2_61
REMARK    2  A    between atoms: C18_5  and  C29_16
REMARK    3  A    between atoms: C20_7  and  O3_52
REMARK    4  A    between atoms: C21_8  and  O4_46
REMARK    5  A    between atoms: C22_9  and  O5_65
REMARK    6  A    between atoms: C24_11  and  C33_20
REMARK    7  A    between atoms: C24_11  and  C34_21
REMARK    8  A    between atoms: C30_17  and  O6_48
REMARK    9  A    between atoms: C31_18  and  O8_23
REMARK   10  A    between atoms: C32_19  and  C35_22
REMARK   11  A    between atoms: O8_23  and  C40_24
REMARK   12  A    between atoms: C40_24  and  C42_26
REMARK   13  A    between atoms: C42_26  and  O13_27
REMARK   14  A    between atoms: C42_26  and  C46_29
REMARK   15  A    between atoms: C46_29  and  N15_30
REMARK   16  A    between atoms: C46_29  and  C50_40
REMARK   17  A    between atoms: C53_32  and  C56_34
REMARK   18  A    between atoms: O6_48  and  C39_49
REMARK   19  A    between atoms: C39_49  and  C43_50
REMARK   20  A    between atoms: O3_52  and  C37_53
REMARK   21  A    between atoms: C37_53  and  C41_55
REMARK   22  A    between atoms: O2_61  and  C36_62
REMARK   23  A    between atoms: C36_62  and  C38_64
REMARK                            x       y       z     vdW  Elec       q    Type
REMARK                         _______ _______ _______ _____ _____    ______ ____
ROOT
ATOM      1  O1  UNK     0      -5.170  -2.707   0.038  0.00  0.00    +0.000 OA
ATOM      2  O7  UNK     0      -0.692  -0.598   3.280  0.00  0.00    +0.000 OA
ATOM      3  C16 UNK     0      -2.658  -0.401   0.581  0.00  0.00    +0.000 C 
ATOM      4  C17 UNK     0      -3.337  -1.626  -0.194  0.00  0.00    +0.000 C 
ATOM      5  C18 UNK     0      -2.815  -0.493   2.178  0.00  0.00    +0.000 C 
ATOM      6  C19 UNK     0      -3.855  -2.887   0.510  0.00  0.00    +0.000 C 
ATOM      7  C20 UNK     0      -2.985   0.977  -0.200  0.00  0.00    +0.000 C 
ATOM      8  C21 UNK     0      -1.851   2.094  -0.435  0.00  0.00    +0.000 C 
ATOM      9  C22 UNK     0      -2.782  -2.020   2.611  0.00  0.00    +0.000 C 
ATOM     10  C23 UNK     0      -3.887  -2.887   2.032  0.00  0.00    +0.000 C 
ATOM     11  C24 UNK     0      -1.551   3.022   0.804  0.00  0.00    +0.000 C 
ATOM     12  C25 UNK     0      -4.818  -1.484  -0.550  0.00  0.00    +0.000 C 
ATOM     13  C26 UNK     0      -1.596   0.145   2.911  0.00  0.00    +0.000 C 
ATOM     14  C27 UNK     0      -0.538   1.430  -0.991  0.00  0.00    +0.000 C 
ATOM     15  C28 UNK     0      -0.757   2.185   1.815  0.00  0.00    +0.000 C 
ATOM     16  C29 UNK     0      -4.144   0.122   2.683  0.00  0.00    +0.000 C 
ATOM     17  C30 UNK     0      -1.320   1.621   3.117  0.00  0.00    +0.000 C 
ATOM     18  C31 UNK     0       0.718   1.412  -0.075  0.00  0.00    +0.000 C 
ATOM     19  C32 UNK     0       0.430   1.653   1.393  0.00  0.00    +0.000 C 
ATOM     20  C33 UNK     0      -2.830   3.715   1.363  0.00  0.00    +0.000 C 
ATOM     21  C34 UNK     0      -0.662   4.241   0.385  0.00  0.00    +0.000 C 
ATOM     22  C35 UNK     0       1.564   1.424   2.371  0.00  0.00    +0.000 C 
ENDROOT
BRANCH   8  23
ATOM     23  O4  UNK     0      -2.288   2.944  -1.482  0.00  0.00    +0.000 OA
ATOM     24  H84 UNK     0      -3.188   3.294  -1.265  0.00  0.00    +0.000 HD
ENDBRANCH   8  23
BRANCH   9  25
ATOM     25  O5  UNK     0      -2.740  -2.174   4.014  0.00  0.00    +0.000 OA
ATOM     26  H85 UNK     0      -3.645  -2.010   4.379  0.00  0.00    +0.000 HD
ENDBRANCH   9  25
BRANCH  18  27
ATOM     27  O8  UNK     0       1.386   0.154  -0.196  0.00  0.00    +0.000 OA
BRANCH  27  28
ATOM     28  C40 UNK     0       2.101  -0.232  -1.336  0.00  0.00    +0.000 C 
ATOM     29  O12 UNK     0       1.973   0.399  -2.421  0.00  0.00    +0.000 OA
BRANCH  28  30
ATOM     30  C42 UNK     0       3.071  -1.371  -1.244  0.00  0.00    +0.000 C 
BRANCH  30  31
ATOM     31  O13 UNK     0       2.421  -2.457  -0.636  0.00  0.00    +0.000 OA
ATOM     32 1H10 UNK     0       2.904  -3.277  -0.912  0.00  0.00    +0.000 HD
ENDBRANCH  30  31
BRANCH  30  33
ATOM     33  C46 UNK     0       4.314  -0.961  -0.415  0.00  0.00    +0.000 C 
BRANCH  33  34
ATOM     34  C50 UNK     0       4.984   0.275  -0.987  0.00  0.00    +0.000 A 
ATOM     35  C52 UNK     0       5.591   0.245  -2.256  0.00  0.00    +0.000 A 
ATOM     36  C55 UNK     0       6.194   1.393  -2.777  0.00  0.00    +0.000 A 
ATOM     37  C57 UNK     0       6.200   2.579  -2.038  0.00  0.00    +0.000 A 
ATOM     38  C54 UNK     0       5.608   2.617  -0.773  0.00  0.00    +0.000 A 
ATOM     39  C51 UNK     0       5.005   1.472  -0.248  0.00  0.00    +0.000 A 
ENDBRANCH  33  34
BRANCH  33  40
ATOM     40  N15 UNK     0       5.284  -2.060  -0.357  0.00  0.00    +0.000 N 
ATOM     41 3H10 UNK     0       5.351  -2.710  -1.172  0.00  0.00    +0.000 HD
ATOM     42  C53 UNK     0       6.305  -2.114   0.655  0.00  0.00    +0.000 C 
ATOM     43  O14 UNK     0       6.402  -1.178   1.497  0.00  0.00    +0.000 OA
BRANCH  42  44
ATOM     44  C56 UNK     0       7.262  -3.244   0.714  0.00  0.00    +0.000 A 
ATOM     45  C59 UNK     0       6.916  -4.517   0.226  0.00  0.00    +0.000 A 
ATOM     46  C61 UNK     0       7.834  -5.569   0.293  0.00  0.00    +0.000 A 
ATOM     47  C62 UNK     0       9.093  -5.372   0.859  0.00  0.00    +0.000 A 
ATOM     48  C60 UNK     0       9.441  -4.118   1.361  0.00  0.00    +0.000 A 
ATOM     49  C58 UNK     0       8.537  -3.054   1.286  0.00  0.00    +0.000 A 
ENDBRANCH  42  44
ENDBRANCH  33  40
ENDBRANCH  30  33
ENDBRANCH  28  30
ENDBRANCH  27  28
ENDBRANCH  18  27
BRANCH  17  50
ATOM     50  O6  UNK     0      -2.456   2.282   3.670  0.00  0.00    +0.000 OA
BRANCH  50  51
ATOM     51  C39 UNK     0      -2.373   3.372   4.551  0.00  0.00    +0.000 C 
ATOM     52  C43 UNK     0      -3.610   3.866   5.211  0.00  0.00    +0.000 C 
ATOM     53  O11 UNK     0      -1.271   3.947   4.776  0.00  0.00    +0.000 OA
ENDBRANCH  50  51
ENDBRANCH  17  50
BRANCH   7  54
ATOM     54  O3  UNK     0      -3.429   0.646  -1.529  0.00  0.00    +0.000 OA
BRANCH  54  55
ATOM     55  C37 UNK     0      -4.554   1.184  -2.174  0.00  0.00    +0.000 C 
ATOM     56  O10 UNK     0      -5.353   1.930  -1.543  0.00  0.00    +0.000 OA
BRANCH  55  57
ATOM     57  C41 UNK     0      -4.810   0.852  -3.594  0.00  0.00    +0.000 A 
ATOM     58  C45 UNK     0      -3.930   0.005  -4.289  0.00  0.00    +0.000 A 
ATOM     59  C48 UNK     0      -4.169  -0.319  -5.628  0.00  0.00    +0.000 A 
ATOM     60  C49 UNK     0      -5.293   0.191  -6.283  0.00  0.00    +0.000 A 
ATOM     61  C47 UNK     0      -6.181   1.025  -5.598  0.00  0.00    +0.000 A 
ATOM     62  C44 UNK     0      -5.944   1.354  -4.260  0.00  0.00    +0.000 A 
ENDBRANCH  55  57
ENDBRANCH  54  55
ENDBRANCH   7  54
BRANCH   4  63
ATOM     63  O2  UNK     0      -2.603  -1.965  -1.380  0.00  0.00    +0.000 OA
BRANCH  63  64
ATOM     64  C36 UNK     0      -1.327  -2.538  -1.381  0.00  0.00    +0.000 C 
ATOM     65  O9  UNK     0      -0.786  -2.914  -0.304  0.00  0.00    +0.000 OA
ATOM     66  C38 UNK     0      -0.585  -2.675  -2.668  0.00  0.00    +0.000 C 
ENDBRANCH  63  64
ENDBRANCH   4  63
TORSDOF 17
