REMARK  Name = C:\Users\Maximilian\Desktop\Conformers\converted_pdb\conformers_pdb\Paclitaxel_conf_41.pdb
REMARK  23 active torsions:
REMARK  status: ('A' for Active; 'I' for Inactive)
REMARK    1  A    between atoms: C17_4  and  O2_61
REMARK    2  A    between atoms: C18_5  and  C29_16
REMARK    3  A    between atoms: C20_7  and  O3_52
REMARK    4  A    between atoms: C21_8  and  O4_46
REMARK    5  A    between atoms: C22_9  and  O5_65
REMARK    6  A    between atoms: C24_11  and  C33_20
REMARK    7  A    between atoms: C24_11  and  C34_21
REMARK    8  A    between atoms: C30_17  and  O6_48
REMARK    9  A    between atoms: C31_18  and  O8_23
REMARK   10  A    between atoms: C32_19  and  C35_22
REMARK   11  A    between atoms: O8_23  and  C40_24
REMARK   12  A    between atoms: C40_24  and  C42_26
REMARK   13  A    between atoms: C42_26  and  O13_27
REMARK   14  A    between atoms: C42_26  and  C46_29
REMARK   15  A    between atoms: C46_29  and  N15_30
REMARK   16  A    between atoms: C46_29  and  C50_40
REMARK   17  A    between atoms: C53_32  and  C56_34
REMARK   18  A    between atoms: O6_48  and  C39_49
REMARK   19  A    between atoms: C39_49  and  C43_50
REMARK   20  A    between atoms: O3_52  and  C37_53
REMARK   21  A    between atoms: C37_53  and  C41_55
REMARK   22  A    between atoms: O2_61  and  C36_62
REMARK   23  A    between atoms: C36_62  and  C38_64
REMARK                            x       y       z     vdW  Elec       q    Type
REMARK                         _______ _______ _______ _____ _____    ______ ____
ROOT
ATOM      1  O1  UNK     0      -5.204  -1.925  -1.517  0.00  0.00    +0.000 OA
ATOM      2  O7  UNK     0       0.104  -2.245   0.787  0.00  0.00    +0.000 OA
ATOM      3  C16 UNK     0      -2.443  -0.715  -0.055  0.00  0.00    +0.000 C 
ATOM      4  C17 UNK     0      -3.498  -0.685  -1.238  0.00  0.00    +0.000 C 
ATOM      5  C18 UNK     0      -2.249  -2.171   0.555  0.00  0.00    +0.000 C 
ATOM      6  C19 UNK     0      -3.876  -1.964  -1.989  0.00  0.00    +0.000 C 
ATOM      7  C20 UNK     0      -2.656   0.535   0.930  0.00  0.00    +0.000 C 
ATOM      8  C21 UNK     0      -1.498   1.122   1.898  0.00  0.00    +0.000 C 
ATOM      9  C22 UNK     0      -1.996  -3.141  -0.662  0.00  0.00    +0.000 C 
ATOM     10  C23 UNK     0      -3.186  -3.290  -1.624  0.00  0.00    +0.000 C 
ATOM     11  C24 UNK     0      -1.405   0.463   3.358  0.00  0.00    +0.000 C 
ATOM     12  C25 UNK     0      -4.960  -0.724  -0.823  0.00  0.00    +0.000 C 
ATOM     13  C26 UNK     0      -0.955  -2.205   1.402  0.00  0.00    +0.000 C 
ATOM     14  C27 UNK     0      -0.086   1.111   1.180  0.00  0.00    +0.000 C 
ATOM     15  C28 UNK     0      -0.387  -0.694   3.288  0.00  0.00    +0.000 C 
ATOM     16  C29 UNK     0      -3.488  -2.704   1.331  0.00  0.00    +0.000 C 
ATOM     17  C30 UNK     0      -0.808  -2.123   2.918  0.00  0.00    +0.000 C 
ATOM     18  C31 UNK     0       1.131   0.899   2.111  0.00  0.00    +0.000 C 
ATOM     19  C32 UNK     0       0.900  -0.344   2.977  0.00  0.00    +0.000 C 
ATOM     20  C33 UNK     0      -2.779   0.065   3.965  0.00  0.00    +0.000 C 
ATOM     21  C34 UNK     0      -0.891   1.494   4.437  0.00  0.00    +0.000 C 
ATOM     22  C35 UNK     0       2.051  -1.301   3.212  0.00  0.00    +0.000 C 
ENDROOT
BRANCH   8  23
ATOM     23  O4  UNK     0      -1.785   2.494   2.094  0.00  0.00    +0.000 OA
ATOM     24  H84 UNK     0      -2.665   2.569   2.549  0.00  0.00    +0.000 HD
ENDBRANCH   8  23
BRANCH   9  25
ATOM     25  O5  UNK     0      -1.548  -4.408  -0.239  0.00  0.00    +0.000 OA
ATOM     26  H85 UNK     0      -2.306  -4.877   0.194  0.00  0.00    +0.000 HD
ENDBRANCH   9  25
BRANCH  18  27
ATOM     27  O8  UNK     0       2.299   0.748   1.295  0.00  0.00    +0.000 OA
BRANCH  27  28
ATOM     28  C40 UNK     0       3.584   1.127   1.705  0.00  0.00    +0.000 C 
ATOM     29  O12 UNK     0       3.751   1.683   2.824  0.00  0.00    +0.000 OA
BRANCH  28  30
ATOM     30  C42 UNK     0       4.797   0.795   0.871  0.00  0.00    +0.000 C 
BRANCH  30  31
ATOM     31  O13 UNK     0       5.761   1.810   1.015  0.00  0.00    +0.000 OA
ATOM     32 1H10 UNK     0       5.379   2.644   0.630  0.00  0.00    +0.000 HD
ENDBRANCH  30  31
BRANCH  30  33
ATOM     33  C46 UNK     0       4.482   0.572  -0.633  0.00  0.00    +0.000 C 
BRANCH  33  34
ATOM     34  C50 UNK     0       3.649  -0.670  -0.887  0.00  0.00    +0.000 A 
ATOM     35  C52 UNK     0       4.107  -1.944  -0.496  0.00  0.00    +0.000 A 
ATOM     36  C55 UNK     0       3.355  -3.087  -0.787  0.00  0.00    +0.000 A 
ATOM     37  C57 UNK     0       2.154  -2.975  -1.488  0.00  0.00    +0.000 A 
ATOM     38  C54 UNK     0       1.700  -1.720  -1.896  0.00  0.00    +0.000 A 
ATOM     39  C51 UNK     0       2.438  -0.572  -1.595  0.00  0.00    +0.000 A 
ENDBRANCH  33  34
BRANCH  33  40
ATOM     40  N15 UNK     0       5.735   0.464  -1.387  0.00  0.00    +0.000 N 
ATOM     41 3H10 UNK     0       6.511  -0.091  -0.964  0.00  0.00    +0.000 HD
ATOM     42  C53 UNK     0       5.926   1.081  -2.674  0.00  0.00    +0.000 C 
ATOM     43  O14 UNK     0       4.993   1.752  -3.193  0.00  0.00    +0.000 OA
BRANCH  42  44
ATOM     44  C56 UNK     0       7.224   0.983  -3.382  0.00  0.00    +0.000 A 
ATOM     45  C59 UNK     0       7.632   2.018  -4.242  0.00  0.00    +0.000 A 
ATOM     46  C61 UNK     0       8.862   1.948  -4.905  0.00  0.00    +0.000 A 
ATOM     47  C62 UNK     0       9.694   0.841  -4.722  0.00  0.00    +0.000 A 
ATOM     48  C60 UNK     0       9.295  -0.199  -3.881  0.00  0.00    +0.000 A 
ATOM     49  C58 UNK     0       8.066  -0.134  -3.215  0.00  0.00    +0.000 A 
ENDBRANCH  42  44
ENDBRANCH  33  40
ENDBRANCH  30  33
ENDBRANCH  28  30
ENDBRANCH  27  28
ENDBRANCH  18  27
BRANCH  17  50
ATOM     50  O6  UNK     0      -1.942  -2.595   3.635  0.00  0.00    +0.000 OA
BRANCH  50  51
ATOM     51  C39 UNK     0      -1.909  -2.936   4.991  0.00  0.00    +0.000 C 
ATOM     52  C43 UNK     0      -3.150  -3.437   5.646  0.00  0.00    +0.000 C 
ATOM     53  O11 UNK     0      -0.863  -2.770   5.675  0.00  0.00    +0.000 OA
ENDBRANCH  50  51
ENDBRANCH  17  50
BRANCH   7  54
ATOM     54  O3  UNK     0      -3.064   1.638   0.106  0.00  0.00    +0.000 OA
BRANCH  54  55
ATOM     55  C37 UNK     0      -4.244   2.380   0.269  0.00  0.00    +0.000 C 
ATOM     56  O10 UNK     0      -5.055   2.100   1.195  0.00  0.00    +0.000 OA
BRANCH  55  57
ATOM     57  C41 UNK     0      -4.540   3.486  -0.665  0.00  0.00    +0.000 A 
ATOM     58  C45 UNK     0      -3.571   3.903  -1.596  0.00  0.00    +0.000 A 
ATOM     59  C48 UNK     0      -3.853   4.932  -2.499  0.00  0.00    +0.000 A 
ATOM     60  C49 UNK     0      -5.102   5.557  -2.479  0.00  0.00    +0.000 A 
ATOM     61  C47 UNK     0      -6.069   5.158  -1.552  0.00  0.00    +0.000 A 
ATOM     62  C44 UNK     0      -5.792   4.128  -0.648  0.00  0.00    +0.000 A 
ENDBRANCH  55  57
ENDBRANCH  54  55
ENDBRANCH   7  54
BRANCH   4  63
ATOM     63  O2  UNK     0      -3.277   0.396  -2.156  0.00  0.00    +0.000 OA
BRANCH  63  64
ATOM     64  C36 UNK     0      -2.246   0.431  -3.103  0.00  0.00    +0.000 C 
ATOM     65  O9  UNK     0      -1.435  -0.528  -3.212  0.00  0.00    +0.000 OA
ATOM     66  C38 UNK     0      -2.094   1.627  -3.979  0.00  0.00    +0.000 C 
ENDBRANCH  63  64
ENDBRANCH   4  63
TORSDOF 17
