REMARK  Name = C:\Users\Maximilian\Desktop\Conformers\converted_pdb\conformers_pdb\Paclitaxel_conf_51.pdb
REMARK  23 active torsions:
REMARK  status: ('A' for Active; 'I' for Inactive)
REMARK    1  A    between atoms: C17_4  and  O2_61
REMARK    2  A    between atoms: C18_5  and  C29_16
REMARK    3  A    between atoms: C20_7  and  O3_52
REMARK    4  A    between atoms: C21_8  and  O4_46
REMARK    5  A    between atoms: C22_9  and  O5_65
REMARK    6  A    between atoms: C24_11  and  C33_20
REMARK    7  A    between atoms: C24_11  and  C34_21
REMARK    8  A    between atoms: C30_17  and  O6_48
REMARK    9  A    between atoms: C31_18  and  O8_23
REMARK   10  A    between atoms: C32_19  and  C35_22
REMARK   11  A    between atoms: O8_23  and  C40_24
REMARK   12  A    between atoms: C40_24  and  C42_26
REMARK   13  A    between atoms: C42_26  and  O13_27
REMARK   14  A    between atoms: C42_26  and  C46_29
REMARK   15  A    between atoms: C46_29  and  N15_30
REMARK   16  A    between atoms: C46_29  and  C50_40
REMARK   17  A    between atoms: C53_32  and  C56_34
REMARK   18  A    between atoms: O6_48  and  C39_49
REMARK   19  A    between atoms: C39_49  and  C43_50
REMARK   20  A    between atoms: O3_52  and  C37_53
REMARK   21  A    between atoms: C37_53  and  C41_55
REMARK   22  A    between atoms: O2_61  and  C36_62
REMARK   23  A    between atoms: C36_62  and  C38_64
REMARK                            x       y       z     vdW  Elec       q    Type
REMARK                         _______ _______ _______ _____ _____    ______ ____
ROOT
ATOM      1  O1  UNK     0      -5.177  -1.943   0.135  0.00  0.00    +0.000 OA
ATOM      2  O7  UNK     0      -3.436   2.570   3.555  0.00  0.00    +0.000 OA
ATOM      3  C16 UNK     0      -2.768   0.305   0.793  0.00  0.00    +0.000 C 
ATOM      4  C17 UNK     0      -3.275  -0.999   0.066  0.00  0.00    +0.000 C 
ATOM      5  C18 UNK     0      -3.494   0.622   2.172  0.00  0.00    +0.000 C 
ATOM      6  C19 UNK     0      -3.990  -2.072   0.894  0.00  0.00    +0.000 C 
ATOM      7  C20 UNK     0      -2.541   1.543  -0.189  0.00  0.00    +0.000 C 
ATOM      8  C21 UNK     0      -1.075   2.184  -0.282  0.00  0.00    +0.000 C 
ATOM      9  C22 UNK     0      -3.483  -0.680   3.025  0.00  0.00    +0.000 C 
ATOM     10  C23 UNK     0      -4.285  -1.822   2.388  0.00  0.00    +0.000 C 
ATOM     11  C24 UNK     0      -0.596   2.886   1.046  0.00  0.00    +0.000 C 
ATOM     12  C25 UNK     0      -4.609  -0.929  -0.662  0.00  0.00    +0.000 C 
ATOM     13  C26 UNK     0      -2.766   1.706   3.008  0.00  0.00    +0.000 C 
ATOM     14  C27 UNK     0      -0.018   1.094  -0.729  0.00  0.00    +0.000 C 
ATOM     15  C28 UNK     0      -0.405   1.757   2.083  0.00  0.00    +0.000 C 
ATOM     16  C29 UNK     0      -4.970   1.090   1.957  0.00  0.00    +0.000 C 
ATOM     17  C30 UNK     0      -1.274   1.677   3.335  0.00  0.00    +0.000 C 
ATOM     18  C31 UNK     0       1.010   0.633   0.346  0.00  0.00    +0.000 C 
ATOM     19  C32 UNK     0       0.452   0.731   1.763  0.00  0.00    +0.000 C 
ATOM     20  C33 UNK     0      -1.576   4.026   1.474  0.00  0.00    +0.000 C 
ATOM     21  C34 UNK     0       0.775   3.628   0.840  0.00  0.00    +0.000 C 
ATOM     22  C35 UNK     0       0.790  -0.367   2.750  0.00  0.00    +0.000 C 
ENDROOT
BRANCH   8  23
ATOM     23  O4  UNK     0      -1.120   3.201  -1.264  0.00  0.00    +0.000 OA
ATOM     24  H84 UNK     0      -1.188   2.785  -2.163  0.00  0.00    +0.000 HD
ENDBRANCH   8  23
BRANCH   9  25
ATOM     25  O5  UNK     0      -3.985  -0.423   4.313  0.00  0.00    +0.000 OA
ATOM     26  H85 UNK     0      -3.662  -1.159   4.897  0.00  0.00    +0.000 HD
ENDBRANCH   9  25
BRANCH  18  27
ATOM     27  O8  UNK     0       1.429  -0.704   0.056  0.00  0.00    +0.000 OA
BRANCH  27  28
ATOM     28  C40 UNK     0       2.245  -1.051  -1.025  0.00  0.00    +0.000 C 
ATOM     29  O12 UNK     0       2.584  -0.191  -1.880  0.00  0.00    +0.000 OA
BRANCH  28  30
ATOM     30  C42 UNK     0       2.765  -2.455  -1.137  0.00  0.00    +0.000 C 
BRANCH  30  31
ATOM     31  O13 UNK     0       1.857  -3.326  -0.514  0.00  0.00    +0.000 OA
ATOM     32 1H10 UNK     0       2.026  -4.228  -0.888  0.00  0.00    +0.000 HD
ENDBRANCH  30  31
BRANCH  30  33
ATOM     33  C46 UNK     0       4.176  -2.625  -0.514  0.00  0.00    +0.000 C 
BRANCH  33  34
ATOM     34  C50 UNK     0       4.232  -2.202   0.951  0.00  0.00    +0.000 A 
ATOM     35  C52 UNK     0       4.159  -3.182   1.961  0.00  0.00    +0.000 A 
ATOM     36  C55 UNK     0       4.202  -2.818   3.311  0.00  0.00    +0.000 A 
ATOM     37  C57 UNK     0       4.314  -1.472   3.669  0.00  0.00    +0.000 A 
ATOM     38  C54 UNK     0       4.382  -0.488   2.680  0.00  0.00    +0.000 A 
ATOM     39  C51 UNK     0       4.333  -0.846   1.330  0.00  0.00    +0.000 A 
ENDBRANCH  33  34
BRANCH  33  40
ATOM     40  N15 UNK     0       5.206  -1.947  -1.317  0.00  0.00    +0.000 N 
ATOM     41 3H10 UNK     0       5.689  -1.112  -0.928  0.00  0.00    +0.000 HD
ATOM     42  C53 UNK     0       5.725  -2.518  -2.533  0.00  0.00    +0.000 C 
ATOM     43  O14 UNK     0       5.264  -3.615  -2.955  0.00  0.00    +0.000 OA
BRANCH  42  44
ATOM     44  C56 UNK     0       6.837  -1.871  -3.274  0.00  0.00    +0.000 A 
ATOM     45  C59 UNK     0       7.699  -2.652  -4.069  0.00  0.00    +0.000 A 
ATOM     46  C61 UNK     0       8.774  -2.066  -4.745  0.00  0.00    +0.000 A 
ATOM     47  C62 UNK     0       8.988  -0.691  -4.649  0.00  0.00    +0.000 A 
ATOM     48  C60 UNK     0       8.129   0.100  -3.880  0.00  0.00    +0.000 A 
ATOM     49  C58 UNK     0       7.055  -0.481  -3.200  0.00  0.00    +0.000 A 
ENDBRANCH  42  44
ENDBRANCH  33  40
ENDBRANCH  30  33
ENDBRANCH  28  30
ENDBRANCH  27  28
ENDBRANCH  18  27
BRANCH  17  50
ATOM     50  O6  UNK     0      -0.900   2.749   4.206  0.00  0.00    +0.000 OA
BRANCH  50  51
ATOM     51  C39 UNK     0      -1.214   2.787   5.568  0.00  0.00    +0.000 C 
ATOM     52  C43 UNK     0      -0.744   3.935   6.399  0.00  0.00    +0.000 C 
ATOM     53  O11 UNK     0      -1.860   1.852   6.107  0.00  0.00    +0.000 OA
ENDBRANCH  50  51
ENDBRANCH  17  50
BRANCH   7  54
ATOM     54  O3  UNK     0      -2.936   1.169  -1.514  0.00  0.00    +0.000 OA
BRANCH  54  55
ATOM     55  C37 UNK     0      -3.817   1.900  -2.325  0.00  0.00    +0.000 C 
ATOM     56  O10 UNK     0      -4.269   3.012  -1.934  0.00  0.00    +0.000 OA
BRANCH  55  57
ATOM     57  C41 UNK     0      -4.240   1.345  -3.625  0.00  0.00    +0.000 A 
ATOM     58  C45 UNK     0      -5.280   1.946  -4.360  0.00  0.00    +0.000 A 
ATOM     59  C48 UNK     0      -5.691   1.399  -5.581  0.00  0.00    +0.000 A 
ATOM     60  C49 UNK     0      -5.066   0.253  -6.081  0.00  0.00    +0.000 A 
ATOM     61  C47 UNK     0      -4.033  -0.352  -5.362  0.00  0.00    +0.000 A 
ATOM     62  C44 UNK     0      -3.618   0.190  -4.139  0.00  0.00    +0.000 A 
ENDBRANCH  55  57
ENDBRANCH  54  55
ENDBRANCH   7  54
BRANCH   4  63
ATOM     63  O2  UNK     0      -2.219  -1.541  -0.754  0.00  0.00    +0.000 OA
BRANCH  63  64
ATOM     64  C36 UNK     0      -2.268  -2.647  -1.622  0.00  0.00    +0.000 C 
ATOM     65  O9  UNK     0      -3.292  -3.375  -1.711  0.00  0.00    +0.000 OA
ATOM     66  C38 UNK     0      -1.065  -2.985  -2.436  0.00  0.00    +0.000 C 
ENDBRANCH  63  64
ENDBRANCH   4  63
TORSDOF 17
