REMARK  Name = C:\Users\Maximilian\Desktop\Conformers\converted_pdb\conformers_pdb\Paclitaxel_conf_15.pdb
REMARK  23 active torsions:
REMARK  status: ('A' for Active; 'I' for Inactive)
REMARK    1  A    between atoms: C17_4  and  O2_61
REMARK    2  A    between atoms: C18_5  and  C29_16
REMARK    3  A    between atoms: C20_7  and  O3_52
REMARK    4  A    between atoms: C21_8  and  O4_46
REMARK    5  A    between atoms: C22_9  and  O5_65
REMARK    6  A    between atoms: C24_11  and  C33_20
REMARK    7  A    between atoms: C24_11  and  C34_21
REMARK    8  A    between atoms: C30_17  and  O6_48
REMARK    9  A    between atoms: C31_18  and  O8_23
REMARK   10  A    between atoms: C32_19  and  C35_22
REMARK   11  A    between atoms: O8_23  and  C40_24
REMARK   12  A    between atoms: C40_24  and  C42_26
REMARK   13  A    between atoms: C42_26  and  O13_27
REMARK   14  A    between atoms: C42_26  and  C46_29
REMARK   15  A    between atoms: C46_29  and  N15_30
REMARK   16  A    between atoms: C46_29  and  C50_40
REMARK   17  A    between atoms: C53_32  and  C56_34
REMARK   18  A    between atoms: O6_48  and  C39_49
REMARK   19  A    between atoms: C39_49  and  C43_50
REMARK   20  A    between atoms: O3_52  and  C37_53
REMARK   21  A    between atoms: C37_53  and  C41_55
REMARK   22  A    between atoms: O2_61  and  C36_62
REMARK   23  A    between atoms: C36_62  and  C38_64
REMARK                            x       y       z     vdW  Elec       q    Type
REMARK                         _______ _______ _______ _____ _____    ______ ____
ROOT
ATOM      1  O1  UNK     0      -4.301   0.340  -2.680  0.00  0.00    +0.000 OA
ATOM      2  O7  UNK     0      -4.911  -2.098   2.675  0.00  0.00    +0.000 OA
ATOM      3  C16 UNK     0      -2.827  -0.362   0.251  0.00  0.00    +0.000 C 
ATOM      4  C17 UNK     0      -2.751   0.123  -1.247  0.00  0.00    +0.000 C 
ATOM      5  C18 UNK     0      -4.039  -1.342   0.572  0.00  0.00    +0.000 C 
ATOM      6  C19 UNK     0      -3.435  -0.721  -2.326  0.00  0.00    +0.000 C 
ATOM      7  C20 UNK     0      -2.558   0.807   1.303  0.00  0.00    +0.000 C 
ATOM      8  C21 UNK     0      -1.344   0.626   2.328  0.00  0.00    +0.000 C 
ATOM      9  C22 UNK     0      -4.013  -2.475  -0.498  0.00  0.00    +0.000 C 
ATOM     10  C23 UNK     0      -4.256  -1.966  -1.926  0.00  0.00    +0.000 C 
ATOM     11  C24 UNK     0      -1.536  -0.545   3.370  0.00  0.00    +0.000 C 
ATOM     12  C25 UNK     0      -3.747   1.183  -1.696  0.00  0.00    +0.000 C 
ATOM     13  C26 UNK     0      -3.918  -2.029   1.960  0.00  0.00    +0.000 C 
ATOM     14  C27 UNK     0       0.005   0.433   1.532  0.00  0.00    +0.000 C 
ATOM     15  C28 UNK     0      -1.470  -1.861   2.565  0.00  0.00    +0.000 C 
ATOM     16  C29 UNK     0      -5.420  -0.607   0.518  0.00  0.00    +0.000 C 
ATOM     17  C30 UNK     0      -2.677  -2.781   2.428  0.00  0.00    +0.000 C 
ATOM     18  C31 UNK     0       0.644  -0.987   1.551  0.00  0.00    +0.000 C 
ATOM     19  C32 UNK     0      -0.353  -2.100   1.816  0.00  0.00    +0.000 C 
ATOM     20  C33 UNK     0      -2.837  -0.376   4.224  0.00  0.00    +0.000 C 
ATOM     21  C34 UNK     0      -0.386  -0.549   4.437  0.00  0.00    +0.000 C 
ATOM     22  C35 UNK     0      -0.055  -3.470   1.236  0.00  0.00    +0.000 C 
ENDROOT
BRANCH   8  23
ATOM     23  O4  UNK     0      -1.196   1.835   3.045  0.00  0.00    +0.000 OA
ATOM     24  H84 UNK     0      -2.070   2.081   3.444  0.00  0.00    +0.000 HD
ENDBRANCH   8  23
BRANCH   9  25
ATOM     25  O5  UNK     0      -4.979  -3.453  -0.193  0.00  0.00    +0.000 OA
ATOM     26  H85 UNK     0      -4.685  -4.300  -0.620  0.00  0.00    +0.000 HD
ENDBRANCH   9  25
BRANCH  18  27
ATOM     27  O8  UNK     0       1.291  -1.215   0.295  0.00  0.00    +0.000 OA
BRANCH  27  28
ATOM     28  C40 UNK     0       2.673  -1.073   0.099  0.00  0.00    +0.000 C 
ATOM     29  O12 UNK     0       3.393  -0.511   0.972  0.00  0.00    +0.000 OA
BRANCH  28  30
ATOM     30  C42 UNK     0       3.305  -1.669  -1.130  0.00  0.00    +0.000 C 
BRANCH  30  31
ATOM     31  O13 UNK     0       4.247  -2.640  -0.753  0.00  0.00    +0.000 OA
ATOM     32 1H10 UNK     0       3.735  -3.427  -0.430  0.00  0.00    +0.000 HD
ENDBRANCH  30  31
BRANCH  30  33
ATOM     33  C46 UNK     0       3.968  -0.585  -2.011  0.00  0.00    +0.000 C 
BRANCH  33  34
ATOM     34  C50 UNK     0       4.431  -1.184  -3.325  0.00  0.00    +0.000 A 
ATOM     35  C52 UNK     0       5.666  -1.855  -3.426  0.00  0.00    +0.000 A 
ATOM     36  C55 UNK     0       6.056  -2.441  -4.635  0.00  0.00    +0.000 A 
ATOM     37  C57 UNK     0       5.213  -2.380  -5.748  0.00  0.00    +0.000 A 
ATOM     38  C54 UNK     0       3.980  -1.734  -5.654  0.00  0.00    +0.000 A 
ATOM     39  C51 UNK     0       3.587  -1.145  -4.449  0.00  0.00    +0.000 A 
ENDBRANCH  33  34
BRANCH  33  40
ATOM     40  N15 UNK     0       5.085   0.069  -1.314  0.00  0.00    +0.000 N 
ATOM     41 3H10 UNK     0       5.645  -0.483  -0.625  0.00  0.00    +0.000 HD
ATOM     42  C53 UNK     0       5.518   1.395  -1.652  0.00  0.00    +0.000 C 
ATOM     43  O14 UNK     0       5.088   1.939  -2.705  0.00  0.00    +0.000 OA
BRANCH  42  44
ATOM     44  C56 UNK     0       6.468   2.133  -0.786  0.00  0.00    +0.000 A 
ATOM     45  C59 UNK     0       7.234   3.186  -1.316  0.00  0.00    +0.000 A 
ATOM     46  C61 UNK     0       8.125   3.893  -0.504  0.00  0.00    +0.000 A 
ATOM     47  C62 UNK     0       8.258   3.564   0.846  0.00  0.00    +0.000 A 
ATOM     48  C60 UNK     0       7.498   2.525   1.388  0.00  0.00    +0.000 A 
ATOM     49  C58 UNK     0       6.603   1.814   0.579  0.00  0.00    +0.000 A 
ENDBRANCH  42  44
ENDBRANCH  33  40
ENDBRANCH  30  33
ENDBRANCH  28  30
ENDBRANCH  27  28
ENDBRANCH  18  27
BRANCH  17  50
ATOM     50  O6  UNK     0      -2.889  -3.434   3.682  0.00  0.00    +0.000 OA
BRANCH  50  51
ATOM     51  C39 UNK     0      -3.653  -4.601   3.830  0.00  0.00    +0.000 C 
ATOM     52  C43 UNK     0      -3.720  -5.269   5.160  0.00  0.00    +0.000 C 
ATOM     53  O11 UNK     0      -4.277  -5.094   2.853  0.00  0.00    +0.000 OA
ENDBRANCH  50  51
ENDBRANCH  17  50
BRANCH   7  54
ATOM     54  O3  UNK     0      -2.331   2.036   0.601  0.00  0.00    +0.000 OA
BRANCH  54  55
ATOM     55  C37 UNK     0      -2.979   3.251   0.859  0.00  0.00    +0.000 C 
ATOM     56  O10 UNK     0      -3.841   3.336   1.778  0.00  0.00    +0.000 OA
BRANCH  55  57
ATOM     57  C41 UNK     0      -2.656   4.430   0.026  0.00  0.00    +0.000 A 
ATOM     58  C45 UNK     0      -1.620   4.363  -0.921  0.00  0.00    +0.000 A 
ATOM     59  C48 UNK     0      -1.318   5.469  -1.719  0.00  0.00    +0.000 A 
ATOM     60  C49 UNK     0      -2.046   6.651  -1.581  0.00  0.00    +0.000 A 
ATOM     61  C47 UNK     0      -3.079   6.731  -0.645  0.00  0.00    +0.000 A 
ATOM     62  C44 UNK     0      -3.385   5.627   0.155  0.00  0.00    +0.000 A 
ENDBRANCH  55  57
ENDBRANCH  54  55
ENDBRANCH   7  54
BRANCH   4  63
ATOM     63  O2  UNK     0      -1.390   0.462  -1.583  0.00  0.00    +0.000 OA
BRANCH  63  64
ATOM     64  C36 UNK     0      -0.904   1.046  -2.765  0.00  0.00    +0.000 C 
ATOM     65  O9  UNK     0      -1.632   1.176  -3.787  0.00  0.00    +0.000 OA
ATOM     66  C38 UNK     0       0.513   1.502  -2.811  0.00  0.00    +0.000 C 
ENDBRANCH  63  64
ENDBRANCH   4  63
TORSDOF 17
