REMARK  Name = C:\Users\Maximilian\Desktop\Conformers\converted_pdb\conformers_pdb\Paclitaxel_conf_66.pdb
REMARK  23 active torsions:
REMARK  status: ('A' for Active; 'I' for Inactive)
REMARK    1  A    between atoms: C17_4  and  O2_61
REMARK    2  A    between atoms: C18_5  and  C29_16
REMARK    3  A    between atoms: C20_7  and  O3_52
REMARK    4  A    between atoms: C21_8  and  O4_46
REMARK    5  A    between atoms: C22_9  and  O5_65
REMARK    6  A    between atoms: C24_11  and  C33_20
REMARK    7  A    between atoms: C24_11  and  C34_21
REMARK    8  A    between atoms: C30_17  and  O6_48
REMARK    9  A    between atoms: C31_18  and  O8_23
REMARK   10  A    between atoms: C32_19  and  C35_22
REMARK   11  A    between atoms: O8_23  and  C40_24
REMARK   12  A    between atoms: C40_24  and  C42_26
REMARK   13  A    between atoms: C42_26  and  O13_27
REMARK   14  A    between atoms: C42_26  and  C46_29
REMARK   15  A    between atoms: C46_29  and  N15_30
REMARK   16  A    between atoms: C46_29  and  C50_40
REMARK   17  A    between atoms: C53_32  and  C56_34
REMARK   18  A    between atoms: O6_48  and  C39_49
REMARK   19  A    between atoms: C39_49  and  C43_50
REMARK   20  A    between atoms: O3_52  and  C37_53
REMARK   21  A    between atoms: C37_53  and  C41_55
REMARK   22  A    between atoms: O2_61  and  C36_62
REMARK   23  A    between atoms: C36_62  and  C38_64
REMARK                            x       y       z     vdW  Elec       q    Type
REMARK                         _______ _______ _______ _____ _____    ______ ____
ROOT
ATOM      1  O1  UNK     0      -5.163  -0.259  -1.752  0.00  0.00    +0.000 OA
ATOM      2  O7  UNK     0      -3.516   4.370   1.642  0.00  0.00    +0.000 OA
ATOM      3  C16 UNK     0      -2.672   1.146   0.043  0.00  0.00    +0.000 C 
ATOM      4  C17 UNK     0      -3.349  -0.104  -0.657  0.00  0.00    +0.000 C 
ATOM      5  C18 UNK     0      -3.707   2.223   0.614  0.00  0.00    +0.000 C 
ATOM      6  C19 UNK     0      -4.829  -0.410  -0.389  0.00  0.00    +0.000 C 
ATOM      7  C20 UNK     0      -1.407   1.702  -0.770  0.00  0.00    +0.000 C 
ATOM      8  C21 UNK     0      -0.010   1.822   0.004  0.00  0.00    +0.000 C 
ATOM      9  C22 UNK     0      -4.815   1.436   1.382  0.00  0.00    +0.000 C 
ATOM     10  C23 UNK     0      -5.665   0.554   0.463  0.00  0.00    +0.000 C 
ATOM     11  C24 UNK     0      -0.030   2.825   1.221  0.00  0.00    +0.000 C 
ATOM     12  C25 UNK     0      -3.830   0.056  -2.092  0.00  0.00    +0.000 C 
ATOM     13  C26 UNK     0      -3.102   3.214   1.638  0.00  0.00    +0.000 C 
ATOM     14  C27 UNK     0       0.472   0.391   0.472  0.00  0.00    +0.000 C 
ATOM     15  C28 UNK     0      -0.904   2.163   2.313  0.00  0.00    +0.000 C 
ATOM     16  C29 UNK     0      -4.336   3.065  -0.545  0.00  0.00    +0.000 C 
ATOM     17  C30 UNK     0      -2.194   2.818   2.793  0.00  0.00    +0.000 C 
ATOM     18  C31 UNK     0       0.542   0.153   2.001  0.00  0.00    +0.000 C 
ATOM     19  C32 UNK     0      -0.566   0.894   2.727  0.00  0.00    +0.000 C 
ATOM     20  C33 UNK     0      -0.476   4.249   0.758  0.00  0.00    +0.000 C 
ATOM     21  C34 UNK     0       1.414   3.050   1.809  0.00  0.00    +0.000 C 
ATOM     22  C35 UNK     0      -1.264   0.213   3.888  0.00  0.00    +0.000 C 
ENDROOT
BRANCH   8  23
ATOM     23  O4  UNK     0       0.941   2.339  -0.904  0.00  0.00    +0.000 OA
ATOM     24  H84 UNK     0       1.170   1.650  -1.581  0.00  0.00    +0.000 HD
ENDBRANCH   8  23
BRANCH   9  25
ATOM     25  O5  UNK     0      -5.639   2.283   2.152  0.00  0.00    +0.000 OA
ATOM     26  H85 UNK     0      -6.238   2.783   1.538  0.00  0.00    +0.000 HD
ENDBRANCH   9  25
BRANCH  18  27
ATOM     27  O8  UNK     0       0.486  -1.259   2.230  0.00  0.00    +0.000 OA
BRANCH  27  28
ATOM     28  C40 UNK     0       1.630  -2.000   2.538  0.00  0.00    +0.000 C 
ATOM     29  O12 UNK     0       2.495  -1.531   3.331  0.00  0.00    +0.000 OA
BRANCH  28  30
ATOM     30  C42 UNK     0       1.880  -3.318   1.858  0.00  0.00    +0.000 C 
BRANCH  30  31
ATOM     31  O13 UNK     0       2.818  -4.055   2.603  0.00  0.00    +0.000 OA
ATOM     32 1H10 UNK     0       2.306  -4.651   3.209  0.00  0.00    +0.000 HD
ENDBRANCH  30  31
BRANCH  30  33
ATOM     33  C46 UNK     0       2.394  -3.087   0.413  0.00  0.00    +0.000 C 
BRANCH  33  34
ATOM     34  C50 UNK     0       2.810  -4.386  -0.250  0.00  0.00    +0.000 A 
ATOM     35  C52 UNK     0       1.943  -5.015  -1.159  0.00  0.00    +0.000 A 
ATOM     36  C55 UNK     0       2.322  -6.202  -1.793  0.00  0.00    +0.000 A 
ATOM     37  C57 UNK     0       3.566  -6.779  -1.516  0.00  0.00    +0.000 A 
ATOM     38  C54 UNK     0       4.437  -6.165  -0.612  0.00  0.00    +0.000 A 
ATOM     39  C51 UNK     0       4.059  -4.979   0.025  0.00  0.00    +0.000 A 
ENDBRANCH  33  34
BRANCH  33  40
ATOM     40  N15 UNK     0       3.514  -2.137   0.374  0.00  0.00    +0.000 N 
ATOM     41 3H10 UNK     0       4.192  -2.149   1.172  0.00  0.00    +0.000 HD
ATOM     42  C53 UNK     0       3.809  -1.377  -0.813  0.00  0.00    +0.000 C 
ATOM     43  O14 UNK     0       3.105  -1.548  -1.838  0.00  0.00    +0.000 OA
BRANCH  42  44
ATOM     44  C56 UNK     0       4.945  -0.423  -0.868  0.00  0.00    +0.000 A 
ATOM     45  C59 UNK     0       5.379   0.061  -2.118  0.00  0.00    +0.000 A 
ATOM     46  C61 UNK     0       6.459   0.947  -2.202  0.00  0.00    +0.000 A 
ATOM     47  C62 UNK     0       7.133   1.344  -1.044  0.00  0.00    +0.000 A 
ATOM     48  C60 UNK     0       6.708   0.878   0.199  0.00  0.00    +0.000 A 
ATOM     49  C58 UNK     0       5.615   0.012   0.294  0.00  0.00    +0.000 A 
ENDBRANCH  42  44
ENDBRANCH  33  40
ENDBRANCH  30  33
ENDBRANCH  28  30
ENDBRANCH  27  28
ENDBRANCH  18  27
BRANCH  17  50
ATOM     50  O6  UNK     0      -1.853   3.975   3.562  0.00  0.00    +0.000 OA
BRANCH  50  51
ATOM     51  C39 UNK     0      -1.803   4.008   4.959  0.00  0.00    +0.000 C 
ATOM     52  C43 UNK     0      -1.228   5.206   5.634  0.00  0.00    +0.000 C 
ATOM     53  O11 UNK     0      -2.281   3.065   5.651  0.00  0.00    +0.000 OA
ENDBRANCH  50  51
ENDBRANCH  17  50
BRANCH   7  54
ATOM     54  O3  UNK     0      -1.173   0.851  -1.900  0.00  0.00    +0.000 OA
BRANCH  54  55
ATOM     55  C37 UNK     0      -0.869   1.277  -3.198  0.00  0.00    +0.000 C 
ATOM     56  O10 UNK     0      -0.916   2.501  -3.497  0.00  0.00    +0.000 OA
BRANCH  55  57
ATOM     57  C41 UNK     0      -0.481   0.268  -4.209  0.00  0.00    +0.000 A 
ATOM     58  C45 UNK     0      -0.177   0.645  -5.529  0.00  0.00    +0.000 A 
ATOM     59  C48 UNK     0       0.195  -0.322  -6.466  0.00  0.00    +0.000 A 
ATOM     60  C49 UNK     0       0.289  -1.665  -6.096  0.00  0.00    +0.000 A 
ATOM     61  C47 UNK     0      -0.002  -2.047  -4.785  0.00  0.00    +0.000 A 
ATOM     62  C44 UNK     0      -0.382  -1.089  -3.846  0.00  0.00    +0.000 A 
ENDBRANCH  55  57
ENDBRANCH  54  55
ENDBRANCH   7  54
BRANCH   4  63
ATOM     63  O2  UNK     0      -2.514  -1.267  -0.477  0.00  0.00    +0.000 OA
BRANCH  63  64
ATOM     64  C36 UNK     0      -2.729  -2.571  -0.957  0.00  0.00    +0.000 C 
ATOM     65  O9  UNK     0      -3.721  -2.862  -1.681  0.00  0.00    +0.000 OA
ATOM     66  C38 UNK     0      -1.743  -3.637  -0.617  0.00  0.00    +0.000 C 
ENDBRANCH  63  64
ENDBRANCH   4  63
TORSDOF 17
