REMARK  Name = C:\Users\Maximilian\Desktop\Conformers\converted_pdb\conformers_pdb\Paclitaxel_conf_18.pdb
REMARK  23 active torsions:
REMARK  status: ('A' for Active; 'I' for Inactive)
REMARK    1  A    between atoms: C17_4  and  O2_61
REMARK    2  A    between atoms: C18_5  and  C29_16
REMARK    3  A    between atoms: C20_7  and  O3_52
REMARK    4  A    between atoms: C21_8  and  O4_46
REMARK    5  A    between atoms: C22_9  and  O5_65
REMARK    6  A    between atoms: C24_11  and  C33_20
REMARK    7  A    between atoms: C24_11  and  C34_21
REMARK    8  A    between atoms: C30_17  and  O6_48
REMARK    9  A    between atoms: C31_18  and  O8_23
REMARK   10  A    between atoms: C32_19  and  C35_22
REMARK   11  A    between atoms: O8_23  and  C40_24
REMARK   12  A    between atoms: C40_24  and  C42_26
REMARK   13  A    between atoms: C42_26  and  O13_27
REMARK   14  A    between atoms: C42_26  and  C46_29
REMARK   15  A    between atoms: C46_29  and  N15_30
REMARK   16  A    between atoms: C46_29  and  C50_40
REMARK   17  A    between atoms: C53_32  and  C56_34
REMARK   18  A    between atoms: O6_48  and  C39_49
REMARK   19  A    between atoms: C39_49  and  C43_50
REMARK   20  A    between atoms: O3_52  and  C37_53
REMARK   21  A    between atoms: C37_53  and  C41_55
REMARK   22  A    between atoms: O2_61  and  C36_62
REMARK   23  A    between atoms: C36_62  and  C38_64
REMARK                            x       y       z     vdW  Elec       q    Type
REMARK                         _______ _______ _______ _____ _____    ______ ____
ROOT
ATOM      1  O1  UNK     0      -3.705   2.970  -0.397  0.00  0.00    +0.000 OA
ATOM      2  O7  UNK     0      -3.116  -1.276  -4.425  0.00  0.00    +0.000 OA
ATOM      3  C16 UNK     0      -2.691  -0.150  -0.912  0.00  0.00    +0.000 C 
ATOM      4  C17 UNK     0      -2.767   1.117   0.025  0.00  0.00    +0.000 C 
ATOM      5  C18 UNK     0      -3.278  -0.001  -2.405  0.00  0.00    +0.000 C 
ATOM      6  C19 UNK     0      -2.428   2.429  -0.666  0.00  0.00    +0.000 C 
ATOM      7  C20 UNK     0      -3.032  -1.520  -0.190  0.00  0.00    +0.000 C 
ATOM      8  C21 UNK     0      -1.875  -2.616  -0.091  0.00  0.00    +0.000 C 
ATOM      9  C22 UNK     0      -3.166   1.490  -2.927  0.00  0.00    +0.000 C 
ATOM     10  C23 UNK     0      -2.129   2.327  -2.169  0.00  0.00    +0.000 C 
ATOM     11  C24 UNK     0      -1.321  -3.114  -1.491  0.00  0.00    +0.000 C 
ATOM     12  C25 UNK     0      -4.108   1.788   0.264  0.00  0.00    +0.000 C 
ATOM     13  C26 UNK     0      -2.513  -0.899  -3.424  0.00  0.00    +0.000 C 
ATOM     14  C27 UNK     0      -0.690  -2.098   0.797  0.00  0.00    +0.000 C 
ATOM     15  C28 UNK     0      -0.548  -1.940  -2.120  0.00  0.00    +0.000 C 
ATOM     16  C29 UNK     0      -4.784  -0.442  -2.494  0.00  0.00    +0.000 C 
ATOM     17  C30 UNK     0      -1.017  -1.203  -3.380  0.00  0.00    +0.000 C 
ATOM     18  C31 UNK     0       0.609  -1.603   0.081  0.00  0.00    +0.000 C 
ATOM     19  C32 UNK     0       0.495  -1.414  -1.420  0.00  0.00    +0.000 C 
ATOM     20  C33 UNK     0      -2.425  -3.705  -2.419  0.00  0.00    +0.000 C 
ATOM     21  C34 UNK     0      -0.333  -4.310  -1.309  0.00  0.00    +0.000 C 
ATOM     22  C35 UNK     0       1.552  -0.555  -2.088  0.00  0.00    +0.000 C 
ENDROOT
BRANCH   8  23
ATOM     23  O4  UNK     0      -2.411  -3.726   0.603  0.00  0.00    +0.000 OA
ATOM     24  H84 UNK     0      -3.206  -4.059   0.110  0.00  0.00    +0.000 HD
ENDBRANCH   8  23
BRANCH   9  25
ATOM     25  O5  UNK     0      -4.406   2.163  -2.867  0.00  0.00    +0.000 OA
ATOM     26  H85 UNK     0      -4.512   2.681  -3.710  0.00  0.00    +0.000 HD
ENDBRANCH   9  25
BRANCH  18  27
ATOM     27  O8  UNK     0       1.026  -0.358   0.643  0.00  0.00    +0.000 OA
BRANCH  27  28
ATOM     28  C40 UNK     0       1.719  -0.240   1.848  0.00  0.00    +0.000 C 
ATOM     29  O12 UNK     0       1.781  -1.208   2.656  0.00  0.00    +0.000 OA
BRANCH  28  30
ATOM     30  C42 UNK     0       2.487   1.022   2.130  0.00  0.00    +0.000 C 
BRANCH  30  31
ATOM     31  O13 UNK     0       1.762   2.136   1.663  0.00  0.00    +0.000 OA
ATOM     32 1H10 UNK     0       1.768   2.113   0.667  0.00  0.00    +0.000 HD
ENDBRANCH  30  31
BRANCH  30  33
ATOM     33  C46 UNK     0       3.890   0.953   1.474  0.00  0.00    +0.000 C 
BRANCH  33  34
ATOM     34  C50 UNK     0       4.772  -0.063   2.173  0.00  0.00    +0.000 A 
ATOM     35  C52 UNK     0       5.124  -1.263   1.527  0.00  0.00    +0.000 A 
ATOM     36  C55 UNK     0       5.959  -2.187   2.164  0.00  0.00    +0.000 A 
ATOM     37  C57 UNK     0       6.469  -1.914   3.435  0.00  0.00    +0.000 A 
ATOM     38  C54 UNK     0       6.117  -0.731   4.091  0.00  0.00    +0.000 A 
ATOM     39  C51 UNK     0       5.276   0.193   3.462  0.00  0.00    +0.000 A 
ENDBRANCH  33  34
BRANCH  33  40
ATOM     40  N15 UNK     0       4.547   2.265   1.496  0.00  0.00    +0.000 N 
ATOM     41 3H10 UNK     0       4.269   2.956   2.227  0.00  0.00    +0.000 HD
ATOM     42  C53 UNK     0       5.605   2.595   0.579  0.00  0.00    +0.000 C 
ATOM     43  O14 UNK     0       5.773   1.897  -0.460  0.00  0.00    +0.000 OA
BRANCH  42  44
ATOM     44  C56 UNK     0       6.496   3.751   0.825  0.00  0.00    +0.000 A 
ATOM     45  C59 UNK     0       6.737   4.216   2.132  0.00  0.00    +0.000 A 
ATOM     46  C61 UNK     0       7.597   5.297   2.349  0.00  0.00    +0.000 A 
ATOM     47  C62 UNK     0       8.231   5.917   1.271  0.00  0.00    +0.000 A 
ATOM     48  C60 UNK     0       8.009   5.458  -0.028  0.00  0.00    +0.000 A 
ATOM     49  C58 UNK     0       7.150   4.378  -0.252  0.00  0.00    +0.000 A 
ENDBRANCH  42  44
ENDBRANCH  33  40
ENDBRANCH  30  33
ENDBRANCH  28  30
ENDBRANCH  27  28
ENDBRANCH  18  27
BRANCH  17  50
ATOM     50  O6  UNK     0      -0.585  -1.949  -4.520  0.00  0.00    +0.000 OA
BRANCH  50  51
ATOM     51  C39 UNK     0      -0.395  -1.384  -5.788  0.00  0.00    +0.000 C 
ATOM     52  C43 UNK     0       0.318  -2.159  -6.841  0.00  0.00    +0.000 C 
ATOM     53  O11 UNK     0      -0.799  -0.217  -6.042  0.00  0.00    +0.000 OA
ENDBRANCH  50  51
ENDBRANCH  17  50
BRANCH   7  54
ATOM     54  O3  UNK     0      -3.558  -1.264   1.119  0.00  0.00    +0.000 OA
BRANCH  54  55
ATOM     55  C37 UNK     0      -4.746  -1.820   1.622  0.00  0.00    +0.000 C 
ATOM     56  O10 UNK     0      -5.371  -2.694   0.960  0.00  0.00    +0.000 OA
BRANCH  55  57
ATOM     57  C41 UNK     0      -5.276  -1.366   2.926  0.00  0.00    +0.000 A 
ATOM     58  C45 UNK     0      -6.518  -1.832   3.398  0.00  0.00    +0.000 A 
ATOM     59  C48 UNK     0      -7.028  -1.374   4.617  0.00  0.00    +0.000 A 
ATOM     60  C49 UNK     0      -6.306  -0.452   5.378  0.00  0.00    +0.000 A 
ATOM     61  C47 UNK     0      -5.073   0.016   4.919  0.00  0.00    +0.000 A 
ATOM     62  C44 UNK     0      -4.558  -0.440   3.701  0.00  0.00    +0.000 A 
ENDBRANCH  55  57
ENDBRANCH  54  55
ENDBRANCH   7  54
BRANCH   4  63
ATOM     63  O2  UNK     0      -1.990   0.925   1.226  0.00  0.00    +0.000 OA
BRANCH  63  64
ATOM     64  C36 UNK     0      -1.786   1.835   2.280  0.00  0.00    +0.000 C 
ATOM     65  O9  UNK     0      -2.258   3.002   2.248  0.00  0.00    +0.000 OA
ATOM     66  C38 UNK     0      -1.006   1.408   3.472  0.00  0.00    +0.000 C 
ENDBRANCH  63  64
ENDBRANCH   4  63
TORSDOF 17
