REMARK  Name = C:\Users\Maximilian\Desktop\Conformers\converted_pdb\conformers_pdb\Paclitaxel_conf_77.pdb
REMARK  23 active torsions:
REMARK  status: ('A' for Active; 'I' for Inactive)
REMARK    1  A    between atoms: C17_4  and  O2_61
REMARK    2  A    between atoms: C18_5  and  C29_16
REMARK    3  A    between atoms: C20_7  and  O3_52
REMARK    4  A    between atoms: C21_8  and  O4_46
REMARK    5  A    between atoms: C22_9  and  O5_65
REMARK    6  A    between atoms: C24_11  and  C33_20
REMARK    7  A    between atoms: C24_11  and  C34_21
REMARK    8  A    between atoms: C30_17  and  O6_48
REMARK    9  A    between atoms: C31_18  and  O8_23
REMARK   10  A    between atoms: C32_19  and  C35_22
REMARK   11  A    between atoms: O8_23  and  C40_24
REMARK   12  A    between atoms: C40_24  and  C42_26
REMARK   13  A    between atoms: C42_26  and  O13_27
REMARK   14  A    between atoms: C42_26  and  C46_29
REMARK   15  A    between atoms: C46_29  and  N15_30
REMARK   16  A    between atoms: C46_29  and  C50_40
REMARK   17  A    between atoms: C53_32  and  C56_34
REMARK   18  A    between atoms: O6_48  and  C39_49
REMARK   19  A    between atoms: C39_49  and  C43_50
REMARK   20  A    between atoms: O3_52  and  C37_53
REMARK   21  A    between atoms: C37_53  and  C41_55
REMARK   22  A    between atoms: O2_61  and  C36_62
REMARK   23  A    between atoms: C36_62  and  C38_64
REMARK                            x       y       z     vdW  Elec       q    Type
REMARK                         _______ _______ _______ _____ _____    ______ ____
ROOT
ATOM      1  O1  UNK     0      -5.866   0.962  -1.944  0.00  0.00    +0.000 OA
ATOM      2  O7  UNK     0      -0.403  -0.898  -2.680  0.00  0.00    +0.000 OA
ATOM      3  C16 UNK     0      -2.851  -0.141  -0.880  0.00  0.00    +0.000 C 
ATOM      4  C17 UNK     0      -3.980   0.973  -0.954  0.00  0.00    +0.000 C 
ATOM      5  C18 UNK     0      -2.725  -0.989  -2.220  0.00  0.00    +0.000 C 
ATOM      6  C19 UNK     0      -4.576   1.416  -2.295  0.00  0.00    +0.000 C 
ATOM      7  C20 UNK     0      -2.918  -0.897   0.551  0.00  0.00    +0.000 C 
ATOM      8  C21 UNK     0      -1.633  -1.529   1.301  0.00  0.00    +0.000 C 
ATOM      9  C22 UNK     0      -2.787   0.003  -3.440  0.00  0.00    +0.000 C 
ATOM     10  C23 UNK     0      -4.115   0.738  -3.586  0.00  0.00    +0.000 C 
ATOM     11  C24 UNK     0      -1.209  -2.991   0.849  0.00  0.00    +0.000 C 
ATOM     12  C25 UNK     0      -5.404   0.485  -0.702  0.00  0.00    +0.000 C 
ATOM     13  C26 UNK     0      -1.316  -1.620  -2.298  0.00  0.00    +0.000 C 
ATOM     14  C27 UNK     0      -0.398  -0.541   1.268  0.00  0.00    +0.000 C 
ATOM     15  C28 UNK     0      -0.344  -2.868  -0.417  0.00  0.00    +0.000 C 
ATOM     16  C29 UNK     0      -3.857  -2.036  -2.414  0.00  0.00    +0.000 C 
ATOM     17  C30 UNK     0      -0.890  -3.004  -1.839  0.00  0.00    +0.000 C 
ATOM     18  C31 UNK     0       0.969  -1.104   0.778  0.00  0.00    +0.000 C 
ATOM     19  C32 UNK     0       0.816  -2.160  -0.300  0.00  0.00    +0.000 C 
ATOM     20  C33 UNK     0      -2.402  -3.983   0.720  0.00  0.00    +0.000 C 
ATOM     21  C34 UNK     0      -0.335  -3.681   1.961  0.00  0.00    +0.000 C 
ATOM     22  C35 UNK     0       1.981  -2.407  -1.237  0.00  0.00    +0.000 C 
ENDROOT
BRANCH   8  23
ATOM     23  O4  UNK     0      -1.966  -1.624   2.676  0.00  0.00    +0.000 OA
ATOM     24  H84 UNK     0      -2.777  -2.182   2.776  0.00  0.00    +0.000 HD
ENDBRANCH   8  23
BRANCH   9  25
ATOM     25  O5  UNK     0      -2.518  -0.685  -4.639  0.00  0.00    +0.000 OA
ATOM     26  H85 UNK     0      -2.188  -0.014  -5.293  0.00  0.00    +0.000 HD
ENDBRANCH   9  25
BRANCH  18  27
ATOM     27  O8  UNK     0       1.759  -0.026   0.266  0.00  0.00    +0.000 OA
BRANCH  27  28
ATOM     28  C40 UNK     0       2.430   0.893   1.081  0.00  0.00    +0.000 C 
ATOM     29  O12 UNK     0       2.365   0.804   2.339  0.00  0.00    +0.000 OA
BRANCH  28  30
ATOM     30  C42 UNK     0       3.296   1.951   0.457  0.00  0.00    +0.000 C 
BRANCH  30  31
ATOM     31  O13 UNK     0       2.570   2.602  -0.554  0.00  0.00    +0.000 OA
ATOM     32 1H10 UNK     0       1.925   3.207  -0.101  0.00  0.00    +0.000 HD
ENDBRANCH  30  31
BRANCH  30  33
ATOM     33  C46 UNK     0       4.574   1.331  -0.155  0.00  0.00    +0.000 C 
BRANCH  33  34
ATOM     34  C50 UNK     0       5.390   0.592   0.889  0.00  0.00    +0.000 A 
ATOM     35  C52 UNK     0       5.520  -0.807   0.830  0.00  0.00    +0.000 A 
ATOM     36  C55 UNK     0       6.267  -1.489   1.796  0.00  0.00    +0.000 A 
ATOM     37  C57 UNK     0       6.895  -0.783   2.825  0.00  0.00    +0.000 A 
ATOM     38  C54 UNK     0       6.781   0.608   2.888  0.00  0.00    +0.000 A 
ATOM     39  C51 UNK     0       6.031   1.294   1.926  0.00  0.00    +0.000 A 
ENDBRANCH  33  34
BRANCH  33  40
ATOM     40  N15 UNK     0       5.406   2.370  -0.775  0.00  0.00    +0.000 N 
ATOM     41 3H10 UNK     0       5.218   3.374  -0.554  0.00  0.00    +0.000 HD
ATOM     42  C53 UNK     0       6.488   2.042  -1.664  0.00  0.00    +0.000 C 
ATOM     43  O14 UNK     0       6.545   0.892  -2.179  0.00  0.00    +0.000 OA
BRANCH  42  44
ATOM     44  C56 UNK     0       7.534   3.039  -1.993  0.00  0.00    +0.000 A 
ATOM     45  C59 UNK     0       8.266   2.926  -3.191  0.00  0.00    +0.000 A 
ATOM     46  C61 UNK     0       9.262   3.858  -3.504  0.00  0.00    +0.000 A 
ATOM     47  C62 UNK     0       9.541   4.906  -2.625  0.00  0.00    +0.000 A 
ATOM     48  C60 UNK     0       8.832   5.020  -1.425  0.00  0.00    +0.000 A 
ATOM     49  C58 UNK     0       7.835   4.092  -1.107  0.00  0.00    +0.000 A 
ENDBRANCH  42  44
ENDBRANCH  33  40
ENDBRANCH  30  33
ENDBRANCH  28  30
ENDBRANCH  27  28
ENDBRANCH  18  27
BRANCH  17  50
ATOM     50  O6  UNK     0      -1.909  -3.983  -2.012  0.00  0.00    +0.000 OA
BRANCH  50  51
ATOM     51  C39 UNK     0      -1.656  -5.354  -2.141  0.00  0.00    +0.000 C 
ATOM     52  C43 UNK     0      -2.789  -6.277  -2.435  0.00  0.00    +0.000 C 
ATOM     53  O11 UNK     0      -0.488  -5.812  -2.022  0.00  0.00    +0.000 OA
ENDBRANCH  50  51
ENDBRANCH  17  50
BRANCH   7  54
ATOM     54  O3  UNK     0      -3.466   0.039   1.497  0.00  0.00    +0.000 OA
BRANCH  54  55
ATOM     55  C37 UNK     0      -4.566  -0.205   2.335  0.00  0.00    +0.000 C 
ATOM     56  O10 UNK     0      -5.271  -1.241   2.182  0.00  0.00    +0.000 OA
BRANCH  55  57
ATOM     57  C41 UNK     0      -4.896   0.762   3.400  0.00  0.00    +0.000 A 
ATOM     58  C45 UNK     0      -4.004   1.803   3.711  0.00  0.00    +0.000 A 
ATOM     59  C48 UNK     0      -4.308   2.715   4.726  0.00  0.00    +0.000 A 
ATOM     60  C49 UNK     0      -5.506   2.600   5.437  0.00  0.00    +0.000 A 
ATOM     61  C47 UNK     0      -6.400   1.570   5.136  0.00  0.00    +0.000 A 
ATOM     62  C44 UNK     0      -6.100   0.654   4.122  0.00  0.00    +0.000 A 
ENDBRANCH  55  57
ENDBRANCH  54  55
ENDBRANCH   7  54
BRANCH   4  63
ATOM     63  O2  UNK     0      -3.607   2.101  -0.129  0.00  0.00    +0.000 OA
BRANCH  63  64
ATOM     64  C36 UNK     0      -4.378   3.235   0.192  0.00  0.00    +0.000 C 
ATOM     65  O9  UNK     0      -5.522   3.419  -0.301  0.00  0.00    +0.000 OA
ATOM     66  C38 UNK     0      -3.828   4.245   1.138  0.00  0.00    +0.000 C 
ENDBRANCH  63  64
ENDBRANCH   4  63
TORSDOF 17
