REMARK  Name = C:\Users\Maximilian\Desktop\Conformers\converted_pdb\conformers_pdb\Paclitaxel_conf_35.pdb
REMARK  23 active torsions:
REMARK  status: ('A' for Active; 'I' for Inactive)
REMARK    1  A    between atoms: C17_4  and  O2_61
REMARK    2  A    between atoms: C18_5  and  C29_16
REMARK    3  A    between atoms: C20_7  and  O3_52
REMARK    4  A    between atoms: C21_8  and  O4_46
REMARK    5  A    between atoms: C22_9  and  O5_65
REMARK    6  A    between atoms: C24_11  and  C33_20
REMARK    7  A    between atoms: C24_11  and  C34_21
REMARK    8  A    between atoms: C30_17  and  O6_48
REMARK    9  A    between atoms: C31_18  and  O8_23
REMARK   10  A    between atoms: C32_19  and  C35_22
REMARK   11  A    between atoms: O8_23  and  C40_24
REMARK   12  A    between atoms: C40_24  and  C42_26
REMARK   13  A    between atoms: C42_26  and  O13_27
REMARK   14  A    between atoms: C42_26  and  C46_29
REMARK   15  A    between atoms: C46_29  and  N15_30
REMARK   16  A    between atoms: C46_29  and  C50_40
REMARK   17  A    between atoms: C53_32  and  C56_34
REMARK   18  A    between atoms: O6_48  and  C39_49
REMARK   19  A    between atoms: C39_49  and  C43_50
REMARK   20  A    between atoms: O3_52  and  C37_53
REMARK   21  A    between atoms: C37_53  and  C41_55
REMARK   22  A    between atoms: O2_61  and  C36_62
REMARK   23  A    between atoms: C36_62  and  C38_64
REMARK                            x       y       z     vdW  Elec       q    Type
REMARK                         _______ _______ _______ _____ _____    ______ ____
ROOT
ATOM      1  O1  UNK     0      -5.972   0.775  -2.729  0.00  0.00    +0.000 OA
ATOM      2  O7  UNK     0      -0.760  -0.789  -2.522  0.00  0.00    +0.000 OA
ATOM      3  C16 UNK     0      -3.251   0.190  -1.080  0.00  0.00    +0.000 C 
ATOM      4  C17 UNK     0      -4.490   1.185  -1.245  0.00  0.00    +0.000 C 
ATOM      5  C18 UNK     0      -3.112  -0.877  -2.290  0.00  0.00    +0.000 C 
ATOM      6  C19 UNK     0      -4.808   1.562  -2.680  0.00  0.00    +0.000 C 
ATOM      7  C20 UNK     0      -3.147  -0.336   0.455  0.00  0.00    +0.000 C 
ATOM      8  C21 UNK     0      -1.788  -0.948   1.116  0.00  0.00    +0.000 C 
ATOM      9  C22 UNK     0      -3.178  -0.155  -3.725  0.00  0.00    +0.000 C 
ATOM     10  C23 UNK     0      -3.743   1.266  -3.724  0.00  0.00    +0.000 C 
ATOM     11  C24 UNK     0      -1.536  -2.521   0.917  0.00  0.00    +0.000 C 
ATOM     12  C25 UNK     0      -5.897   0.569  -1.334  0.00  0.00    +0.000 C 
ATOM     13  C26 UNK     0      -1.699  -1.513  -2.218  0.00  0.00    +0.000 C 
ATOM     14  C27 UNK     0      -0.543  -0.094   0.656  0.00  0.00    +0.000 C 
ATOM     15  C28 UNK     0      -0.662  -2.711  -0.337  0.00  0.00    +0.000 C 
ATOM     16  C29 UNK     0      -4.255  -1.939  -2.287  0.00  0.00    +0.000 C 
ATOM     17  C30 UNK     0      -1.288  -2.894  -1.719  0.00  0.00    +0.000 C 
ATOM     18  C31 UNK     0       0.784  -0.879   0.565  0.00  0.00    +0.000 C 
ATOM     19  C32 UNK     0       0.580  -2.128  -0.298  0.00  0.00    +0.000 C 
ATOM     20  C33 UNK     0      -2.856  -3.340   0.946  0.00  0.00    +0.000 C 
ATOM     21  C34 UNK     0      -0.763  -3.201   2.111  0.00  0.00    +0.000 C 
ATOM     22  C35 UNK     0       1.648  -2.491  -1.304  0.00  0.00    +0.000 C 
ENDROOT
BRANCH   8  23
ATOM     23  O4  UNK     0      -1.917  -0.757   2.515  0.00  0.00    +0.000 OA
ATOM     24  H84 UNK     0      -1.031  -0.821   2.955  0.00  0.00    +0.000 HD
ENDBRANCH   8  23
BRANCH   9  25
ATOM     25  O5  UNK     0      -3.864  -0.932  -4.684  0.00  0.00    +0.000 OA
ATOM     26  H85 UNK     0      -3.538  -0.661  -5.588  0.00  0.00    +0.000 HD
ENDBRANCH   9  25
BRANCH  18  27
ATOM     27  O8  UNK     0       1.778  -0.036  -0.022  0.00  0.00    +0.000 OA
BRANCH  27  28
ATOM     28  C40 UNK     0       2.414   1.005   0.674  0.00  0.00    +0.000 C 
ATOM     29  O12 UNK     0       2.025   1.349   1.821  0.00  0.00    +0.000 OA
BRANCH  28  30
ATOM     30  C42 UNK     0       3.561   1.727   0.031  0.00  0.00    +0.000 C 
BRANCH  30  31
ATOM     31  O13 UNK     0       3.148   2.316  -1.176  0.00  0.00    +0.000 OA
ATOM     32 1H10 UNK     0       2.900   1.586  -1.802  0.00  0.00    +0.000 HD
ENDBRANCH  30  31
BRANCH  30  33
ATOM     33  C46 UNK     0       4.769   0.788  -0.199  0.00  0.00    +0.000 C 
BRANCH  33  34
ATOM     34  C50 UNK     0       5.228   0.168   1.109  0.00  0.00    +0.000 A 
ATOM     35  C52 UNK     0       5.868   0.947   2.093  0.00  0.00    +0.000 A 
ATOM     36  C55 UNK     0       6.229   0.378   3.318  0.00  0.00    +0.000 A 
ATOM     37  C57 UNK     0       5.957  -0.968   3.574  0.00  0.00    +0.000 A 
ATOM     38  C54 UNK     0       5.321  -1.747   2.605  0.00  0.00    +0.000 A 
ATOM     39  C51 UNK     0       4.960  -1.186   1.380  0.00  0.00    +0.000 A 
ENDBRANCH  33  34
BRANCH  33  40
ATOM     40  N15 UNK     0       5.878   1.523  -0.817  0.00  0.00    +0.000 N 
ATOM     41 3H10 UNK     0       5.869   2.566  -0.784  0.00  0.00    +0.000 HD
ATOM     42  C53 UNK     0       6.973   0.854  -1.459  0.00  0.00    +0.000 C 
ATOM     43  O14 UNK     0       6.875  -0.377  -1.726  0.00  0.00    +0.000 OA
BRANCH  42  44
ATOM     44  C56 UNK     0       8.202   1.588  -1.851  0.00  0.00    +0.000 A 
ATOM     45  C59 UNK     0       9.044   1.067  -2.854  0.00  0.00    +0.000 A 
ATOM     46  C61 UNK     0      10.199   1.753  -3.239  0.00  0.00    +0.000 A 
ATOM     47  C62 UNK     0      10.536   2.958  -2.622  0.00  0.00    +0.000 A 
ATOM     48  C60 UNK     0       9.717   3.484  -1.622  0.00  0.00    +0.000 A 
ATOM     49  C58 UNK     0       8.564   2.799  -1.225  0.00  0.00    +0.000 A 
ENDBRANCH  42  44
ENDBRANCH  33  40
ENDBRANCH  30  33
ENDBRANCH  28  30
ENDBRANCH  27  28
ENDBRANCH  18  27
BRANCH  17  50
ATOM     50  O6  UNK     0      -2.318  -3.869  -1.748  0.00  0.00    +0.000 OA
BRANCH  50  51
ATOM     51  C39 UNK     0      -2.073  -5.249  -1.668  0.00  0.00    +0.000 C 
ATOM     52  C43 UNK     0      -3.209  -6.203  -1.843  0.00  0.00    +0.000 C 
ATOM     53  O11 UNK     0      -0.915  -5.690  -1.434  0.00  0.00    +0.000 OA
ENDBRANCH  50  51
ENDBRANCH  17  50
BRANCH   7  54
ATOM     54  O3  UNK     0      -3.490   0.783   1.285  0.00  0.00    +0.000 OA
BRANCH  54  55
ATOM     55  C37 UNK     0      -4.160   0.702   2.521  0.00  0.00    +0.000 C 
ATOM     56  O10 UNK     0      -4.892  -0.297   2.787  0.00  0.00    +0.000 OA
BRANCH  55  57
ATOM     57  C41 UNK     0      -3.956   1.765   3.529  0.00  0.00    +0.000 A 
ATOM     58  C45 UNK     0      -3.085   2.833   3.247  0.00  0.00    +0.000 A 
ATOM     59  C48 UNK     0      -2.834   3.817   4.208  0.00  0.00    +0.000 A 
ATOM     60  C49 UNK     0      -3.450   3.741   5.460  0.00  0.00    +0.000 A 
ATOM     61  C47 UNK     0      -4.317   2.680   5.754  0.00  0.00    +0.000 A 
ATOM     62  C44 UNK     0      -4.574   1.700   4.793  0.00  0.00    +0.000 A 
ENDBRANCH  55  57
ENDBRANCH  54  55
ENDBRANCH   7  54
BRANCH   4  63
ATOM     63  O2  UNK     0      -4.330   2.424  -0.517  0.00  0.00    +0.000 OA
BRANCH  63  64
ATOM     64  C36 UNK     0      -5.214   3.016   0.405  0.00  0.00    +0.000 C 
ATOM     65  O9  UNK     0      -6.083   2.340   1.019  0.00  0.00    +0.000 OA
ATOM     66  C38 UNK     0      -5.096   4.474   0.703  0.00  0.00    +0.000 C 
ENDBRANCH  63  64
ENDBRANCH   4  63
TORSDOF 17
