REMARK  Name = C:\Users\Maximilian\Desktop\Conformers\converted_pdb\conformers_pdb\Paclitaxel_conf_22.pdb
REMARK  23 active torsions:
REMARK  status: ('A' for Active; 'I' for Inactive)
REMARK    1  A    between atoms: C17_4  and  O2_61
REMARK    2  A    between atoms: C18_5  and  C29_16
REMARK    3  A    between atoms: C20_7  and  O3_52
REMARK    4  A    between atoms: C21_8  and  O4_46
REMARK    5  A    between atoms: C22_9  and  O5_65
REMARK    6  A    between atoms: C24_11  and  C33_20
REMARK    7  A    between atoms: C24_11  and  C34_21
REMARK    8  A    between atoms: C30_17  and  O6_48
REMARK    9  A    between atoms: C31_18  and  O8_23
REMARK   10  A    between atoms: C32_19  and  C35_22
REMARK   11  A    between atoms: O8_23  and  C40_24
REMARK   12  A    between atoms: C40_24  and  C42_26
REMARK   13  A    between atoms: C42_26  and  O13_27
REMARK   14  A    between atoms: C42_26  and  C46_29
REMARK   15  A    between atoms: C46_29  and  N15_30
REMARK   16  A    between atoms: C46_29  and  C50_40
REMARK   17  A    between atoms: C53_32  and  C56_34
REMARK   18  A    between atoms: O6_48  and  C39_49
REMARK   19  A    between atoms: C39_49  and  C43_50
REMARK   20  A    between atoms: O3_52  and  C37_53
REMARK   21  A    between atoms: C37_53  and  C41_55
REMARK   22  A    between atoms: O2_61  and  C36_62
REMARK   23  A    between atoms: C36_62  and  C38_64
REMARK                            x       y       z     vdW  Elec       q    Type
REMARK                         _______ _______ _______ _____ _____    ______ ____
ROOT
ATOM      1  O1  UNK     0      -4.171  -0.991  -2.745  0.00  0.00    +0.000 OA
ATOM      2  O7  UNK     0      -0.905  -4.179   0.035  0.00  0.00    +0.000 OA
ATOM      3  C16 UNK     0      -2.358  -0.970   0.080  0.00  0.00    +0.000 C 
ATOM      4  C17 UNK     0      -2.789  -0.301  -1.291  0.00  0.00    +0.000 C 
ATOM      5  C18 UNK     0      -2.665  -2.555   0.255  0.00  0.00    +0.000 C 
ATOM      6  C19 UNK     0      -2.782  -1.164  -2.541  0.00  0.00    +0.000 C 
ATOM      7  C20 UNK     0      -2.677  -0.015   1.329  0.00  0.00    +0.000 C 
ATOM      8  C21 UNK     0      -1.452   0.546   2.201  0.00  0.00    +0.000 C 
ATOM      9  C22 UNK     0      -3.141  -3.214  -1.110  0.00  0.00    +0.000 C 
ATOM     10  C23 UNK     0      -2.411  -2.627  -2.318  0.00  0.00    +0.000 C 
ATOM     11  C24 UNK     0      -0.791  -0.540   3.125  0.00  0.00    +0.000 C 
ATOM     12  C25 UNK     0      -4.279  -0.217  -1.566  0.00  0.00    +0.000 C 
ATOM     13  C26 UNK     0      -1.370  -3.294   0.735  0.00  0.00    +0.000 C 
ATOM     14  C27 UNK     0      -0.354   1.205   1.297  0.00  0.00    +0.000 C 
ATOM     15  C28 UNK     0      -0.147  -1.591   2.195  0.00  0.00    +0.000 C 
ATOM     16  C29 UNK     0      -3.802  -2.889   1.257  0.00  0.00    +0.000 C 
ATOM     17  C30 UNK     0      -0.625  -3.045   2.047  0.00  0.00    +0.000 C 
ATOM     18  C31 UNK     0       0.909   0.349   0.959  0.00  0.00    +0.000 C 
ATOM     19  C32 UNK     0       0.784  -1.135   1.296  0.00  0.00    +0.000 C 
ATOM     20  C33 UNK     0      -1.808  -1.064   4.182  0.00  0.00    +0.000 C 
ATOM     21  C34 UNK     0       0.342   0.081   4.018  0.00  0.00    +0.000 C 
ATOM     22  C35 UNK     0       1.757  -2.084   0.625  0.00  0.00    +0.000 C 
ENDROOT
BRANCH   8  23
ATOM     23  O4  UNK     0      -1.961   1.545   3.068  0.00  0.00    +0.000 OA
ATOM     24  H84 UNK     0      -2.173   2.359   2.541  0.00  0.00    +0.000 HD
ENDBRANCH   8  23
BRANCH   9  25
ATOM     25  O5  UNK     0      -4.538  -3.119  -1.294  0.00  0.00    +0.000 OA
ATOM     26  H85 UNK     0      -4.796  -3.769  -2.001  0.00  0.00    +0.000 HD
ENDBRANCH   9  25
BRANCH  18  27
ATOM     27  O8  UNK     0       1.223   0.491  -0.430  0.00  0.00    +0.000 OA
BRANCH  27  28
ATOM     28  C40 UNK     0       1.658   1.684  -1.016  0.00  0.00    +0.000 C 
ATOM     29  O12 UNK     0       1.507   2.779  -0.416  0.00  0.00    +0.000 OA
BRANCH  28  30
ATOM     30  C42 UNK     0       2.384   1.649  -2.336  0.00  0.00    +0.000 C 
BRANCH  30  31
ATOM     31  O13 UNK     0       2.155   0.432  -3.011  0.00  0.00    +0.000 OA
ATOM     32 1H10 UNK     0       2.577  -0.297  -2.484  0.00  0.00    +0.000 HD
ENDBRANCH  30  31
BRANCH  30  33
ATOM     33  C46 UNK     0       3.899   1.946  -2.149  0.00  0.00    +0.000 C 
BRANCH  33  34
ATOM     34  C50 UNK     0       4.638   1.835  -3.469  0.00  0.00    +0.000 A 
ATOM     35  C52 UNK     0       5.156   0.602  -3.907  0.00  0.00    +0.000 A 
ATOM     36  C55 UNK     0       5.842   0.514  -5.123  0.00  0.00    +0.000 A 
ATOM     37  C57 UNK     0       6.011   1.652  -5.918  0.00  0.00    +0.000 A 
ATOM     38  C54 UNK     0       5.486   2.877  -5.501  0.00  0.00    +0.000 A 
ATOM     39  C51 UNK     0       4.795   2.969  -4.287  0.00  0.00    +0.000 A 
ENDBRANCH  33  34
BRANCH  33  40
ATOM     40  N15 UNK     0       4.518   1.086  -1.130  0.00  0.00    +0.000 N 
ATOM     41 3H10 UNK     0       4.002   0.249  -0.779  0.00  0.00    +0.000 HD
ATOM     42  C53 UNK     0       5.827   1.355  -0.606  0.00  0.00    +0.000 C 
ATOM     43  O14 UNK     0       6.345   2.496  -0.785  0.00  0.00    +0.000 OA
BRANCH  42  44
ATOM     44  C56 UNK     0       6.571   0.332   0.164  0.00  0.00    +0.000 A 
ATOM     45  C59 UNK     0       7.555   0.722   1.088  0.00  0.00    +0.000 A 
ATOM     46  C61 UNK     0       8.251  -0.242   1.826  0.00  0.00    +0.000 A 
ATOM     47  C62 UNK     0       7.993  -1.596   1.633  0.00  0.00    +0.000 A 
ATOM     48  C60 UNK     0       7.020  -1.997   0.717  0.00  0.00    +0.000 A 
ATOM     49  C58 UNK     0       6.308  -1.042  -0.017  0.00  0.00    +0.000 A 
ENDBRANCH  42  44
ENDBRANCH  33  40
ENDBRANCH  30  33
ENDBRANCH  28  30
ENDBRANCH  27  28
ENDBRANCH  18  27
BRANCH  17  50
ATOM     50  O6  UNK     0      -1.382  -3.553   3.139  0.00  0.00    +0.000 OA
BRANCH  50  51
ATOM     51  C39 UNK     0      -0.819  -4.180   4.257  0.00  0.00    +0.000 C 
ATOM     52  C43 UNK     0      -1.709  -4.709   5.330  0.00  0.00    +0.000 C 
ATOM     53  O11 UNK     0       0.431  -4.336   4.352  0.00  0.00    +0.000 OA
ENDBRANCH  50  51
ENDBRANCH  17  50
BRANCH   7  54
ATOM     54  O3  UNK     0      -3.458   1.100   0.879  0.00  0.00    +0.000 OA
BRANCH  54  55
ATOM     55  C37 UNK     0      -4.585   1.614   1.533  0.00  0.00    +0.000 C 
ATOM     56  O10 UNK     0      -4.958   1.129   2.635  0.00  0.00    +0.000 OA
BRANCH  55  57
ATOM     57  C41 UNK     0      -5.336   2.730   0.926  0.00  0.00    +0.000 A 
ATOM     58  C45 UNK     0      -6.580   3.126   1.447  0.00  0.00    +0.000 A 
ATOM     59  C48 UNK     0      -7.302   4.160   0.843  0.00  0.00    +0.000 A 
ATOM     60  C49 UNK     0      -6.793   4.809  -0.286  0.00  0.00    +0.000 A 
ATOM     61  C47 UNK     0      -5.548   4.434  -0.804  0.00  0.00    +0.000 A 
ATOM     62  C44 UNK     0      -4.826   3.397  -0.202  0.00  0.00    +0.000 A 
ENDBRANCH  55  57
ENDBRANCH  54  55
ENDBRANCH   7  54
BRANCH   4  63
ATOM     63  O2  UNK     0      -2.104   0.950  -1.499  0.00  0.00    +0.000 OA
BRANCH  63  64
ATOM     64  C36 UNK     0      -2.218   1.838  -2.580  0.00  0.00    +0.000 C 
ATOM     65  O9  UNK     0      -3.014   1.629  -3.532  0.00  0.00    +0.000 OA
ATOM     66  C38 UNK     0      -1.364   3.050  -2.617  0.00  0.00    +0.000 C 
ENDBRANCH  63  64
ENDBRANCH   4  63
TORSDOF 17
