REMARK  Name = C:\Users\Maximilian\Desktop\Conformers\converted_pdb\conformers_pdb\Paclitaxel_conf_85.pdb
REMARK  23 active torsions:
REMARK  status: ('A' for Active; 'I' for Inactive)
REMARK    1  A    between atoms: C17_4  and  O2_61
REMARK    2  A    between atoms: C18_5  and  C29_16
REMARK    3  A    between atoms: C20_7  and  O3_52
REMARK    4  A    between atoms: C21_8  and  O4_46
REMARK    5  A    between atoms: C22_9  and  O5_65
REMARK    6  A    between atoms: C24_11  and  C33_20
REMARK    7  A    between atoms: C24_11  and  C34_21
REMARK    8  A    between atoms: C30_17  and  O6_48
REMARK    9  A    between atoms: C31_18  and  O8_23
REMARK   10  A    between atoms: C32_19  and  C35_22
REMARK   11  A    between atoms: O8_23  and  C40_24
REMARK   12  A    between atoms: C40_24  and  C42_26
REMARK   13  A    between atoms: C42_26  and  O13_27
REMARK   14  A    between atoms: C42_26  and  C46_29
REMARK   15  A    between atoms: C46_29  and  N15_30
REMARK   16  A    between atoms: C46_29  and  C50_40
REMARK   17  A    between atoms: C53_32  and  C56_34
REMARK   18  A    between atoms: O6_48  and  C39_49
REMARK   19  A    between atoms: C39_49  and  C43_50
REMARK   20  A    between atoms: O3_52  and  C37_53
REMARK   21  A    between atoms: C37_53  and  C41_55
REMARK   22  A    between atoms: O2_61  and  C36_62
REMARK   23  A    between atoms: C36_62  and  C38_64
REMARK                            x       y       z     vdW  Elec       q    Type
REMARK                         _______ _______ _______ _____ _____    ______ ____
ROOT
ATOM      1  O1  UNK     0      -5.252  -0.822  -2.828  0.00  0.00    +0.000 OA
ATOM      2  O7  UNK     0      -4.149  -3.338   2.360  0.00  0.00    +0.000 OA
ATOM      3  C16 UNK     0      -3.192  -0.871  -0.176  0.00  0.00    +0.000 C 
ATOM      4  C17 UNK     0      -3.515  -0.433  -1.662  0.00  0.00    +0.000 C 
ATOM      5  C18 UNK     0      -3.892  -2.247   0.239  0.00  0.00    +0.000 C 
ATOM      6  C19 UNK     0      -4.008  -1.469  -2.680  0.00  0.00    +0.000 C 
ATOM      7  C20 UNK     0      -3.290   0.345   0.856  0.00  0.00    +0.000 C 
ATOM      8  C21 UNK     0      -2.038   0.642   1.805  0.00  0.00    +0.000 C 
ATOM      9  C22 UNK     0      -3.565  -3.280  -0.889  0.00  0.00    +0.000 C 
ATOM     10  C23 UNK     0      -4.209  -2.932  -2.237  0.00  0.00    +0.000 C 
ATOM     11  C24 UNK     0      -1.706  -0.523   2.818  0.00  0.00    +0.000 C 
ATOM     12  C25 UNK     0      -4.879   0.187  -1.918  0.00  0.00    +0.000 C 
ATOM     13  C26 UNK     0      -3.354  -2.852   1.562  0.00  0.00    +0.000 C 
ATOM     14  C27 UNK     0      -0.777   0.996   0.912  0.00  0.00    +0.000 C 
ATOM     15  C28 UNK     0      -1.157  -1.688   1.960  0.00  0.00    +0.000 C 
ATOM     16  C29 UNK     0      -5.443  -2.087   0.388  0.00  0.00    +0.000 C 
ATOM     17  C30 UNK     0      -1.878  -3.023   1.880  0.00  0.00    +0.000 C 
ATOM     18  C31 UNK     0       0.407  -0.017   0.948  0.00  0.00    +0.000 C 
ATOM     19  C32 UNK     0      -0.073  -1.446   1.154  0.00  0.00    +0.000 C 
ATOM     20  C33 UNK     0      -2.942  -0.865   3.714  0.00  0.00    +0.000 C 
ATOM     21  C34 UNK     0      -0.604  -0.117   3.863  0.00  0.00    +0.000 C 
ATOM     22  C35 UNK     0       0.666  -2.565   0.444  0.00  0.00    +0.000 C 
ENDROOT
BRANCH   8  23
ATOM     23  O4  UNK     0      -2.409   1.781   2.559  0.00  0.00    +0.000 OA
ATOM     24  H84 UNK     0      -1.614   2.161   3.017  0.00  0.00    +0.000 HD
ENDBRANCH   8  23
BRANCH   9  25
ATOM     25  O5  UNK     0      -3.891  -4.600  -0.516  0.00  0.00    +0.000 OA
ATOM     26  H85 UNK     0      -4.881  -4.683  -0.481  0.00  0.00    +0.000 HD
ENDBRANCH   9  25
BRANCH  18  27
ATOM     27  O8  UNK     0       1.176   0.087  -0.255  0.00  0.00    +0.000 OA
BRANCH  27  28
ATOM     28  C40 UNK     0       2.035   1.161  -0.520  0.00  0.00    +0.000 C 
ATOM     29  O12 UNK     0       1.927   2.239   0.123  0.00  0.00    +0.000 OA
BRANCH  28  30
ATOM     30  C42 UNK     0       3.156   1.002  -1.508  0.00  0.00    +0.000 C 
BRANCH  30  31
ATOM     31  O13 UNK     0       2.754   0.110  -2.518  0.00  0.00    +0.000 OA
ATOM     32 1H10 UNK     0       3.021   0.500  -3.389  0.00  0.00    +0.000 HD
ENDBRANCH  30  31
BRANCH  30  33
ATOM     33  C46 UNK     0       4.433   0.454  -0.823  0.00  0.00    +0.000 C 
BRANCH  33  34
ATOM     34  C50 UNK     0       4.837   1.305   0.369  0.00  0.00    +0.000 A 
ATOM     35  C52 UNK     0       4.529   0.878   1.675  0.00  0.00    +0.000 A 
ATOM     36  C55 UNK     0       4.848   1.679   2.773  0.00  0.00    +0.000 A 
ATOM     37  C57 UNK     0       5.451   2.923   2.581  0.00  0.00    +0.000 A 
ATOM     38  C54 UNK     0       5.752   3.362   1.290  0.00  0.00    +0.000 A 
ATOM     39  C51 UNK     0       5.434   2.564   0.188  0.00  0.00    +0.000 A 
ENDBRANCH  33  34
BRANCH  33  40
ATOM     40  N15 UNK     0       5.540   0.391  -1.783  0.00  0.00    +0.000 N 
ATOM     41 3H10 UNK     0       5.450   0.890  -2.696  0.00  0.00    +0.000 HD
ATOM     42  C53 UNK     0       6.763  -0.309  -1.501  0.00  0.00    +0.000 C 
ATOM     43  O14 UNK     0       6.825  -1.089  -0.516  0.00  0.00    +0.000 OA
BRANCH  42  44
ATOM     44  C56 UNK     0       7.953  -0.132  -2.363  0.00  0.00    +0.000 A 
ATOM     45  C59 UNK     0       8.179   1.075  -3.044  0.00  0.00    +0.000 A 
ATOM     46  C61 UNK     0       9.305   1.230  -3.860  0.00  0.00    +0.000 A 
ATOM     47  C62 UNK     0      10.221   0.185  -4.000  0.00  0.00    +0.000 A 
ATOM     48  C60 UNK     0      10.012  -1.019  -3.322  0.00  0.00    +0.000 A 
ATOM     49  C58 UNK     0       8.888  -1.176  -2.501  0.00  0.00    +0.000 A 
ENDBRANCH  42  44
ENDBRANCH  33  40
ENDBRANCH  30  33
ENDBRANCH  28  30
ENDBRANCH  27  28
ENDBRANCH  18  27
BRANCH  17  50
ATOM     50  O6  UNK     0      -1.674  -3.712   3.116  0.00  0.00    +0.000 OA
BRANCH  50  51
ATOM     51  C39 UNK     0      -1.911  -5.079   3.292  0.00  0.00    +0.000 C 
ATOM     52  C43 UNK     0      -1.578  -5.718   4.598  0.00  0.00    +0.000 C 
ATOM     53  O11 UNK     0      -2.390  -5.779   2.358  0.00  0.00    +0.000 OA
ENDBRANCH  50  51
ENDBRANCH  17  50
BRANCH   7  54
ATOM     54  O3  UNK     0      -3.548   1.554   0.128  0.00  0.00    +0.000 OA
BRANCH  54  55
ATOM     55  C37 UNK     0      -4.366   2.607   0.566  0.00  0.00    +0.000 C 
ATOM     56  O10 UNK     0      -5.072   2.481   1.605  0.00  0.00    +0.000 OA
BRANCH  55  57
ATOM     57  C41 UNK     0      -4.393   3.867  -0.209  0.00  0.00    +0.000 A 
ATOM     58  C45 UNK     0      -3.614   3.999  -1.373  0.00  0.00    +0.000 A 
ATOM     59  C48 UNK     0      -3.619   5.194  -2.099  0.00  0.00    +0.000 A 
ATOM     60  C49 UNK     0      -4.399   6.270  -1.672  0.00  0.00    +0.000 A 
ATOM     61  C47 UNK     0      -5.181   6.152  -0.520  0.00  0.00    +0.000 A 
ATOM     62  C44 UNK     0      -5.178   4.958   0.212  0.00  0.00    +0.000 A 
ENDBRANCH  55  57
ENDBRANCH  54  55
ENDBRANCH   7  54
BRANCH   4  63
ATOM     63  O2  UNK     0      -2.508   0.420  -2.224  0.00  0.00    +0.000 OA
BRANCH  63  64
ATOM     64  C36 UNK     0      -1.273  -0.018  -2.709  0.00  0.00    +0.000 C 
ATOM     65  O9  UNK     0      -0.889  -1.205  -2.527  0.00  0.00    +0.000 OA
ATOM     66  C38 UNK     0      -0.398   0.942  -3.438  0.00  0.00    +0.000 C 
ENDBRANCH  63  64
ENDBRANCH   4  63
TORSDOF 17
