REMARK  Name = C:\Users\Maximilian\Desktop\Conformers\converted_pdb\conformers_pdb\Paclitaxel_conf_67.pdb
REMARK  23 active torsions:
REMARK  status: ('A' for Active; 'I' for Inactive)
REMARK    1  A    between atoms: C17_4  and  O2_61
REMARK    2  A    between atoms: C18_5  and  C29_16
REMARK    3  A    between atoms: C20_7  and  O3_52
REMARK    4  A    between atoms: C21_8  and  O4_46
REMARK    5  A    between atoms: C22_9  and  O5_65
REMARK    6  A    between atoms: C24_11  and  C33_20
REMARK    7  A    between atoms: C24_11  and  C34_21
REMARK    8  A    between atoms: C30_17  and  O6_48
REMARK    9  A    between atoms: C31_18  and  O8_23
REMARK   10  A    between atoms: C32_19  and  C35_22
REMARK   11  A    between atoms: O8_23  and  C40_24
REMARK   12  A    between atoms: C40_24  and  C42_26
REMARK   13  A    between atoms: C42_26  and  O13_27
REMARK   14  A    between atoms: C42_26  and  C46_29
REMARK   15  A    between atoms: C46_29  and  N15_30
REMARK   16  A    between atoms: C46_29  and  C50_40
REMARK   17  A    between atoms: C53_32  and  C56_34
REMARK   18  A    between atoms: O6_48  and  C39_49
REMARK   19  A    between atoms: C39_49  and  C43_50
REMARK   20  A    between atoms: O3_52  and  C37_53
REMARK   21  A    between atoms: C37_53  and  C41_55
REMARK   22  A    between atoms: O2_61  and  C36_62
REMARK   23  A    between atoms: C36_62  and  C38_64
REMARK                            x       y       z     vdW  Elec       q    Type
REMARK                         _______ _______ _______ _____ _____    ______ ____
ROOT
ATOM      1  O1  UNK     0      -5.819   0.672  -2.417  0.00  0.00    +0.000 OA
ATOM      2  O7  UNK     0      -0.523   0.064  -2.516  0.00  0.00    +0.000 OA
ATOM      3  C16 UNK     0      -3.029   0.107  -0.903  0.00  0.00    +0.000 C 
ATOM      4  C17 UNK     0      -4.383   0.944  -0.885  0.00  0.00    +0.000 C 
ATOM      5  C18 UNK     0      -2.753  -0.674  -2.295  0.00  0.00    +0.000 C 
ATOM      6  C19 UNK     0      -4.760   1.583  -2.205  0.00  0.00    +0.000 C 
ATOM      7  C20 UNK     0      -2.801  -0.693   0.489  0.00  0.00    +0.000 C 
ATOM      8  C21 UNK     0      -1.340  -1.091   1.078  0.00  0.00    +0.000 C 
ATOM      9  C22 UNK     0      -3.078   0.232  -3.588  0.00  0.00    +0.000 C 
ATOM     10  C23 UNK     0      -3.664   1.603  -3.263  0.00  0.00    +0.000 C 
ATOM     11  C24 UNK     0      -0.712  -2.461   0.547  0.00  0.00    +0.000 C 
ATOM     12  C25 UNK     0      -5.655   0.146  -1.112  0.00  0.00    +0.000 C 
ATOM     13  C26 UNK     0      -1.224  -0.928  -2.348  0.00  0.00    +0.000 C 
ATOM     14  C27 UNK     0      -0.327   0.122   0.908  0.00  0.00    +0.000 C 
ATOM     15  C28 UNK     0       0.140  -2.147  -0.693  0.00  0.00    +0.000 C 
ATOM     16  C29 UNK     0      -3.611  -1.973  -2.440  0.00  0.00    +0.000 C 
ATOM     17  C30 UNK     0      -0.438  -2.214  -2.110  0.00  0.00    +0.000 C 
ATOM     18  C31 UNK     0       1.144  -0.272   0.631  0.00  0.00    +0.000 C 
ATOM     19  C32 UNK     0       1.197  -1.297  -0.502  0.00  0.00    +0.000 C 
ATOM     20  C33 UNK     0      -1.768  -3.579   0.356  0.00  0.00    +0.000 C 
ATOM     21  C34 UNK     0       0.237  -3.147   1.600  0.00  0.00    +0.000 C 
ATOM     22  C35 UNK     0       2.314  -1.196  -1.516  0.00  0.00    +0.000 C 
ENDROOT
BRANCH   8  23
ATOM     23  O4  UNK     0      -1.546  -1.297   2.466  0.00  0.00    +0.000 OA
ATOM     24  H84 UNK     0      -0.716  -1.099   2.977  0.00  0.00    +0.000 HD
ENDBRANCH   8  23
BRANCH   9  25
ATOM     25  O5  UNK     0      -3.926  -0.407  -4.521  0.00  0.00    +0.000 OA
ATOM     26  H85 UNK     0      -3.750  -0.017  -5.418  0.00  0.00    +0.000 HD
ENDBRANCH   9  25
BRANCH  18  27
ATOM     27  O8  UNK     0       1.884   0.896   0.259  0.00  0.00    +0.000 OA
BRANCH  27  28
ATOM     28  C40 UNK     0       2.285   1.884   1.170  0.00  0.00    +0.000 C 
ATOM     29  O12 UNK     0       1.846   1.880   2.352  0.00  0.00    +0.000 OA
BRANCH  28  30
ATOM     30  C42 UNK     0       3.298   2.924   0.764  0.00  0.00    +0.000 C 
BRANCH  30  31
ATOM     31  O13 UNK     0       3.016   3.464  -0.506  0.00  0.00    +0.000 OA
ATOM     32 1H10 UNK     0       2.872   2.722  -1.149  0.00  0.00    +0.000 HD
ENDBRANCH  30  31
BRANCH  30  33
ATOM     33  C46 UNK     0       4.737   2.362   0.868  0.00  0.00    +0.000 C 
BRANCH  33  34
ATOM     34  C50 UNK     0       5.768   3.442   0.621  0.00  0.00    +0.000 A 
ATOM     35  C52 UNK     0       6.094   3.852  -0.687  0.00  0.00    +0.000 A 
ATOM     36  C55 UNK     0       7.030   4.869  -0.895  0.00  0.00    +0.000 A 
ATOM     37  C57 UNK     0       7.642   5.493   0.195  0.00  0.00    +0.000 A 
ATOM     38  C54 UNK     0       7.316   5.104   1.497  0.00  0.00    +0.000 A 
ATOM     39  C51 UNK     0       6.379   4.089   1.710  0.00  0.00    +0.000 A 
ENDBRANCH  33  34
BRANCH  33  40
ATOM     40  N15 UNK     0       4.954   1.226  -0.037  0.00  0.00    +0.000 N 
ATOM     41 3H10 UNK     0       4.533   1.256  -0.992  0.00  0.00    +0.000 HD
ATOM     42  C53 UNK     0       5.779   0.103   0.320  0.00  0.00    +0.000 C 
ATOM     43  O14 UNK     0       6.293   0.041   1.471  0.00  0.00    +0.000 OA
BRANCH  42  44
ATOM     44  C56 UNK     0       6.002  -1.011  -0.631  0.00  0.00    +0.000 A 
ATOM     45  C59 UNK     0       6.009  -0.793  -2.021  0.00  0.00    +0.000 A 
ATOM     46  C61 UNK     0       6.181  -1.865  -2.902  0.00  0.00    +0.000 A 
ATOM     47  C62 UNK     0       6.357  -3.159  -2.407  0.00  0.00    +0.000 A 
ATOM     48  C60 UNK     0       6.367  -3.384  -1.028  0.00  0.00    +0.000 A 
ATOM     49  C58 UNK     0       6.194  -2.316  -0.143  0.00  0.00    +0.000 A 
ENDBRANCH  42  44
ENDBRANCH  33  40
ENDBRANCH  30  33
ENDBRANCH  28  30
ENDBRANCH  27  28
ENDBRANCH  18  27
BRANCH  17  50
ATOM     50  O6  UNK     0      -1.151  -3.414  -2.380  0.00  0.00    +0.000 OA
BRANCH  50  51
ATOM     51  C39 UNK     0      -0.524  -4.659  -2.518  0.00  0.00    +0.000 C 
ATOM     52  C43 UNK     0      -1.350  -5.864  -2.812  0.00  0.00    +0.000 C 
ATOM     53  O11 UNK     0       0.729  -4.766  -2.412  0.00  0.00    +0.000 OA
ENDBRANCH  50  51
ENDBRANCH  17  50
BRANCH   7  54
ATOM     54  O3  UNK     0      -3.404   0.095   1.523  0.00  0.00    +0.000 OA
BRANCH  54  55
ATOM     55  C37 UNK     0      -4.175  -0.410   2.581  0.00  0.00    +0.000 C 
ATOM     56  O10 UNK     0      -4.790  -1.505   2.458  0.00  0.00    +0.000 OA
BRANCH  55  57
ATOM     57  C41 UNK     0      -4.203   0.326   3.862  0.00  0.00    +0.000 A 
ATOM     58  C45 UNK     0      -5.021  -0.100   4.925  0.00  0.00    +0.000 A 
ATOM     59  C48 UNK     0      -4.994   0.572   6.151  0.00  0.00    +0.000 A 
ATOM     60  C49 UNK     0      -4.155   1.676   6.327  0.00  0.00    +0.000 A 
ATOM     61  C47 UNK     0      -3.343   2.110   5.278  0.00  0.00    +0.000 A 
ATOM     62  C44 UNK     0      -3.365   1.440   4.051  0.00  0.00    +0.000 A 
ENDBRANCH  55  57
ENDBRANCH  54  55
ENDBRANCH   7  54
BRANCH   4  63
ATOM     63  O2  UNK     0      -4.430   1.901   0.198  0.00  0.00    +0.000 OA
BRANCH  63  64
ATOM     64  C36 UNK     0      -5.491   2.744   0.577  0.00  0.00    +0.000 C 
ATOM     65  O9  UNK     0      -6.550   2.831  -0.104  0.00  0.00    +0.000 OA
ATOM     66  C38 UNK     0      -5.358   3.550   1.824  0.00  0.00    +0.000 C 
ENDBRANCH  63  64
ENDBRANCH   4  63
TORSDOF 17
