REMARK  Name = C:\Users\Maximilian\Desktop\Conformers\converted_pdb\conformers_pdb\Paclitaxel_conf_73.pdb
REMARK  23 active torsions:
REMARK  status: ('A' for Active; 'I' for Inactive)
REMARK    1  A    between atoms: C17_4  and  O2_61
REMARK    2  A    between atoms: C18_5  and  C29_16
REMARK    3  A    between atoms: C20_7  and  O3_52
REMARK    4  A    between atoms: C21_8  and  O4_46
REMARK    5  A    between atoms: C22_9  and  O5_65
REMARK    6  A    between atoms: C24_11  and  C33_20
REMARK    7  A    between atoms: C24_11  and  C34_21
REMARK    8  A    between atoms: C30_17  and  O6_48
REMARK    9  A    between atoms: C31_18  and  O8_23
REMARK   10  A    between atoms: C32_19  and  C35_22
REMARK   11  A    between atoms: O8_23  and  C40_24
REMARK   12  A    between atoms: C40_24  and  C42_26
REMARK   13  A    between atoms: C42_26  and  O13_27
REMARK   14  A    between atoms: C42_26  and  C46_29
REMARK   15  A    between atoms: C46_29  and  N15_30
REMARK   16  A    between atoms: C46_29  and  C50_40
REMARK   17  A    between atoms: C53_32  and  C56_34
REMARK   18  A    between atoms: O6_48  and  C39_49
REMARK   19  A    between atoms: C39_49  and  C43_50
REMARK   20  A    between atoms: O3_52  and  C37_53
REMARK   21  A    between atoms: C37_53  and  C41_55
REMARK   22  A    between atoms: O2_61  and  C36_62
REMARK   23  A    between atoms: C36_62  and  C38_64
REMARK                            x       y       z     vdW  Elec       q    Type
REMARK                         _______ _______ _______ _____ _____    ______ ____
ROOT
ATOM      1  O1  UNK     0      -6.062   0.616  -2.354  0.00  0.00    +0.000 OA
ATOM      2  O7  UNK     0      -1.166  -1.364  -2.217  0.00  0.00    +0.000 OA
ATOM      3  C16 UNK     0      -3.339  -0.165  -0.526  0.00  0.00    +0.000 C 
ATOM      4  C17 UNK     0      -4.579   0.828  -0.813  0.00  0.00    +0.000 C 
ATOM      5  C18 UNK     0      -3.393  -1.501  -1.455  0.00  0.00    +0.000 C 
ATOM      6  C19 UNK     0      -4.750   1.123  -2.299  0.00  0.00    +0.000 C 
ATOM      7  C20 UNK     0      -2.910  -0.259   1.046  0.00  0.00    +0.000 C 
ATOM      8  C21 UNK     0      -1.473  -0.824   1.564  0.00  0.00    +0.000 C 
ATOM      9  C22 UNK     0      -3.787  -1.133  -2.977  0.00  0.00    +0.000 C 
ATOM     10  C23 UNK     0      -3.810   0.382  -3.249  0.00  0.00    +0.000 C 
ATOM     11  C24 UNK     0      -1.229  -2.406   1.590  0.00  0.00    +0.000 C 
ATOM     12  C25 UNK     0      -6.020   0.325  -0.979  0.00  0.00    +0.000 C 
ATOM     13  C26 UNK     0      -1.944  -2.056  -1.569  0.00  0.00    +0.000 C 
ATOM     14  C27 UNK     0      -0.328  -0.067   0.764  0.00  0.00    +0.000 C 
ATOM     15  C28 UNK     0      -0.500  -2.796   0.292  0.00  0.00    +0.000 C 
ATOM     16  C29 UNK     0      -4.459  -2.524  -0.900  0.00  0.00    +0.000 C 
ATOM     17  C30 UNK     0      -1.279  -3.281  -0.930  0.00  0.00    +0.000 C 
ATOM     18  C31 UNK     0       1.005  -0.839   0.717  0.00  0.00    +0.000 C 
ATOM     19  C32 UNK     0       0.724  -2.205   0.078  0.00  0.00    +0.000 C 
ATOM     20  C33 UNK     0      -2.523  -3.200   1.888  0.00  0.00    +0.000 C 
ATOM     21  C34 UNK     0      -0.328  -2.893   2.785  0.00  0.00    +0.000 C 
ATOM     22  C35 UNK     0       1.658  -2.686  -1.014  0.00  0.00    +0.000 C 
ENDROOT
BRANCH   8  23
ATOM     23  O4  UNK     0      -1.403  -0.460   2.933  0.00  0.00    +0.000 OA
ATOM     24  H84 UNK     0      -0.607   0.109   3.133  0.00  0.00    +0.000 HD
ENDBRANCH   8  23
BRANCH   9  25
ATOM     25  O5  UNK     0      -5.003  -1.712  -3.406  0.00  0.00    +0.000 OA
ATOM     26  H85 UNK     0      -5.152  -1.459  -4.360  0.00  0.00    +0.000 HD
ENDBRANCH   9  25
BRANCH  18  27
ATOM     27  O8  UNK     0       1.975  -0.114  -0.049  0.00  0.00    +0.000 OA
BRANCH  27  28
ATOM     28  C40 UNK     0       2.537   1.095   0.386  0.00  0.00    +0.000 C 
ATOM     29  O12 UNK     0       2.062   1.705   1.380  0.00  0.00    +0.000 OA
BRANCH  28  30
ATOM     30  C42 UNK     0       3.715   1.680  -0.345  0.00  0.00    +0.000 C 
BRANCH  30  31
ATOM     31  O13 UNK     0       3.324   2.154  -1.611  0.00  0.00    +0.000 OA
ATOM     32 1H10 UNK     0       2.990   1.379  -2.132  0.00  0.00    +0.000 HD
ENDBRANCH  30  31
BRANCH  30  33
ATOM     33  C46 UNK     0       4.896   0.684  -0.474  0.00  0.00    +0.000 C 
BRANCH  33  34
ATOM     34  C50 UNK     0       5.199  -0.042   0.823  0.00  0.00    +0.000 A 
ATOM     35  C52 UNK     0       5.112  -1.445   0.886  0.00  0.00    +0.000 A 
ATOM     36  C55 UNK     0       5.341  -2.116   2.091  0.00  0.00    +0.000 A 
ATOM     37  C57 UNK     0       5.660  -1.390   3.244  0.00  0.00    +0.000 A 
ATOM     38  C54 UNK     0       5.775   0.004   3.189  0.00  0.00    +0.000 A 
ATOM     39  C51 UNK     0       5.542   0.681   1.989  0.00  0.00    +0.000 A 
ENDBRANCH  33  34
BRANCH  33  40
ATOM     40  N15 UNK     0       6.089   1.412  -0.912  0.00  0.00    +0.000 N 
ATOM     41 3H10 UNK     0       6.212   2.416  -0.627  0.00  0.00    +0.000 HD
ATOM     42  C53 UNK     0       6.983   0.876  -1.896  0.00  0.00    +0.000 C 
ATOM     43  O14 UNK     0       7.283  -0.353  -1.886  0.00  0.00    +0.000 OA
BRANCH  42  44
ATOM     44  C56 UNK     0       7.519   1.751  -2.954  0.00  0.00    +0.000 A 
ATOM     45  C59 UNK     0       6.627   2.381  -3.833  0.00  0.00    +0.000 A 
ATOM     46  C61 UNK     0       7.113   3.161  -4.884  0.00  0.00    +0.000 A 
ATOM     47  C62 UNK     0       8.492   3.314  -5.055  0.00  0.00    +0.000 A 
ATOM     48  C60 UNK     0       9.382   2.719  -4.154  0.00  0.00    +0.000 A 
ATOM     49  C58 UNK     0       8.903   1.906  -3.123  0.00  0.00    +0.000 A 
ENDBRANCH  42  44
ENDBRANCH  33  40
ENDBRANCH  30  33
ENDBRANCH  28  30
ENDBRANCH  27  28
ENDBRANCH  18  27
BRANCH  17  50
ATOM     50  O6  UNK     0      -2.136  -4.378  -0.632  0.00  0.00    +0.000 OA
BRANCH  50  51
ATOM     51  C39 UNK     0      -1.662  -5.650  -0.322  0.00  0.00    +0.000 C 
ATOM     52  C43 UNK     0      -2.627  -6.720   0.061  0.00  0.00    +0.000 C 
ATOM     53  O11 UNK     0      -0.424  -5.908  -0.386  0.00  0.00    +0.000 OA
ENDBRANCH  50  51
ENDBRANCH  17  50
BRANCH   7  54
ATOM     54  O3  UNK     0      -2.934   1.101   1.516  0.00  0.00    +0.000 OA
BRANCH  54  55
ATOM     55  C37 UNK     0      -3.209   1.535   2.822  0.00  0.00    +0.000 C 
ATOM     56  O10 UNK     0      -3.735   0.756   3.661  0.00  0.00    +0.000 OA
BRANCH  55  57
ATOM     57  C41 UNK     0      -2.884   2.924   3.195  0.00  0.00    +0.000 A 
ATOM     58  C45 UNK     0      -3.245   3.441   4.451  0.00  0.00    +0.000 A 
ATOM     59  C48 UNK     0      -2.988   4.788   4.763  0.00  0.00    +0.000 A 
ATOM     60  C49 UNK     0      -2.357   5.621   3.832  0.00  0.00    +0.000 A 
ATOM     61  C47 UNK     0      -1.968   5.106   2.590  0.00  0.00    +0.000 A 
ATOM     62  C44 UNK     0      -2.224   3.765   2.272  0.00  0.00    +0.000 A 
ENDBRANCH  55  57
ENDBRANCH  54  55
ENDBRANCH   7  54
BRANCH   4  63
ATOM     63  O2  UNK     0      -4.506   2.113  -0.163  0.00  0.00    +0.000 OA
BRANCH  63  64
ATOM     64  C36 UNK     0      -5.334   2.523   0.901  0.00  0.00    +0.000 C 
ATOM     65  O9  UNK     0      -5.917   1.675   1.639  0.00  0.00    +0.000 OA
ATOM     66  C38 UNK     0      -5.562   3.980   1.139  0.00  0.00    +0.000 C 
ENDBRANCH  63  64
ENDBRANCH   4  63
TORSDOF 17
