REMARK  Name = C:\Users\Maximilian\Desktop\Conformers\converted_pdb\conformers_pdb\Paclitaxel_conf_75.pdb
REMARK  23 active torsions:
REMARK  status: ('A' for Active; 'I' for Inactive)
REMARK    1  A    between atoms: C17_4  and  O2_61
REMARK    2  A    between atoms: C18_5  and  C29_16
REMARK    3  A    between atoms: C20_7  and  O3_52
REMARK    4  A    between atoms: C21_8  and  O4_46
REMARK    5  A    between atoms: C22_9  and  O5_65
REMARK    6  A    between atoms: C24_11  and  C33_20
REMARK    7  A    between atoms: C24_11  and  C34_21
REMARK    8  A    between atoms: C30_17  and  O6_48
REMARK    9  A    between atoms: C31_18  and  O8_23
REMARK   10  A    between atoms: C32_19  and  C35_22
REMARK   11  A    between atoms: O8_23  and  C40_24
REMARK   12  A    between atoms: C40_24  and  C42_26
REMARK   13  A    between atoms: C42_26  and  O13_27
REMARK   14  A    between atoms: C42_26  and  C46_29
REMARK   15  A    between atoms: C46_29  and  N15_30
REMARK   16  A    between atoms: C46_29  and  C50_40
REMARK   17  A    between atoms: C53_32  and  C56_34
REMARK   18  A    between atoms: O6_48  and  C39_49
REMARK   19  A    between atoms: C39_49  and  C43_50
REMARK   20  A    between atoms: O3_52  and  C37_53
REMARK   21  A    between atoms: C37_53  and  C41_55
REMARK   22  A    between atoms: O2_61  and  C36_62
REMARK   23  A    between atoms: C36_62  and  C38_64
REMARK                            x       y       z     vdW  Elec       q    Type
REMARK                         _______ _______ _______ _____ _____    ______ ____
ROOT
ATOM      1  O1  UNK     0      -4.770   0.161  -1.705  0.00  0.00    +0.000 OA
ATOM      2  O7  UNK     0      -4.133  -1.014   4.026  0.00  0.00    +0.000 OA
ATOM      3  C16 UNK     0      -2.594  -0.185   0.821  0.00  0.00    +0.000 C 
ATOM      4  C17 UNK     0      -2.900  -0.076  -0.727  0.00  0.00    +0.000 C 
ATOM      5  C18 UNK     0      -3.777  -0.843   1.665  0.00  0.00    +0.000 C 
ATOM      6  C19 UNK     0      -3.992  -0.960  -1.339  0.00  0.00    +0.000 C 
ATOM      7  C20 UNK     0      -1.928   1.145   1.413  0.00  0.00    +0.000 C 
ATOM      8  C21 UNK     0      -0.535   1.006   2.189  0.00  0.00    +0.000 C 
ATOM      9  C22 UNK     0      -4.193  -2.161   0.944  0.00  0.00    +0.000 C 
ATOM     10  C23 UNK     0      -4.797  -1.920  -0.442  0.00  0.00    +0.000 C 
ATOM     11  C24 UNK     0      -0.606   0.157   3.522  0.00  0.00    +0.000 C 
ATOM     12  C25 UNK     0      -3.817   1.053  -1.172  0.00  0.00    +0.000 C 
ATOM     13  C26 UNK     0      -3.362  -1.246   3.102  0.00  0.00    +0.000 C 
ATOM     14  C27 UNK     0       0.560   0.415   1.212  0.00  0.00    +0.000 C 
ATOM     15  C28 UNK     0      -0.838  -1.306   3.076  0.00  0.00    +0.000 C 
ATOM     16  C29 UNK     0      -5.019   0.103   1.774  0.00  0.00    +0.000 C 
ATOM     17  C30 UNK     0      -2.116  -2.060   3.431  0.00  0.00    +0.000 C 
ATOM     18  C31 UNK     0       1.130  -0.982   1.575  0.00  0.00    +0.000 C 
ATOM     19  C32 UNK     0       0.075  -1.867   2.219  0.00  0.00    +0.000 C 
ATOM     20  C33 UNK     0      -1.673   0.720   4.520  0.00  0.00    +0.000 C 
ATOM     21  C34 UNK     0       0.744   0.239   4.326  0.00  0.00    +0.000 C 
ATOM     22  C35 UNK     0       0.095  -3.356   1.927  0.00  0.00    +0.000 C 
ENDROOT
BRANCH   8  23
ATOM     23  O4  UNK     0      -0.091   2.305   2.525  0.00  0.00    +0.000 OA
ATOM     24  H84 UNK     0      -0.802   2.769   3.035  0.00  0.00    +0.000 HD
ENDBRANCH   8  23
BRANCH   9  25
ATOM     25  O5  UNK     0      -5.123  -2.877   1.726  0.00  0.00    +0.000 OA
ATOM     26  H85 UNK     0      -5.085  -3.822   1.427  0.00  0.00    +0.000 HD
ENDBRANCH   9  25
BRANCH  18  27
ATOM     27  O8  UNK     0       1.673  -1.589   0.397  0.00  0.00    +0.000 OA
BRANCH  27  28
ATOM     28  C40 UNK     0       2.974  -1.321  -0.059  0.00  0.00    +0.000 C 
ATOM     29  O12 UNK     0       3.677  -0.429   0.494  0.00  0.00    +0.000 OA
BRANCH  28  30
ATOM     30  C42 UNK     0       3.546  -2.121  -1.198  0.00  0.00    +0.000 C 
BRANCH  30  31
ATOM     31  O13 UNK     0       4.831  -2.592  -0.872  0.00  0.00    +0.000 OA
ATOM     32 1H10 UNK     0       5.424  -1.807  -0.741  0.00  0.00    +0.000 HD
ENDBRANCH  30  31
BRANCH  30  33
ATOM     33  C46 UNK     0       3.528  -1.337  -2.532  0.00  0.00    +0.000 C 
BRANCH  33  34
ATOM     34  C50 UNK     0       3.957  -2.221  -3.692  0.00  0.00    +0.000 A 
ATOM     35  C52 UNK     0       5.306  -2.593  -3.878  0.00  0.00    +0.000 A 
ATOM     36  C55 UNK     0       5.662  -3.471  -4.905  0.00  0.00    +0.000 A 
ATOM     37  C57 UNK     0       4.683  -3.997  -5.752  0.00  0.00    +0.000 A 
ATOM     38  C54 UNK     0       3.344  -3.647  -5.571  0.00  0.00    +0.000 A 
ATOM     39  C51 UNK     0       2.982  -2.765  -4.550  0.00  0.00    +0.000 A 
ENDBRANCH  33  34
BRANCH  33  40
ATOM     40  N15 UNK     0       4.337  -0.110  -2.462  0.00  0.00    +0.000 N 
ATOM     41 3H10 UNK     0       5.375  -0.181  -2.531  0.00  0.00    +0.000 HD
ATOM     42  C53 UNK     0       3.754   1.182  -2.208  0.00  0.00    +0.000 C 
ATOM     43  O14 UNK     0       2.514   1.350  -2.365  0.00  0.00    +0.000 OA
BRANCH  42  44
ATOM     44  C56 UNK     0       4.588   2.330  -1.775  0.00  0.00    +0.000 A 
ATOM     45  C59 UNK     0       5.822   2.133  -1.125  0.00  0.00    +0.000 A 
ATOM     46  C61 UNK     0       6.590   3.227  -0.719  0.00  0.00    +0.000 A 
ATOM     47  C62 UNK     0       6.135   4.529  -0.948  0.00  0.00    +0.000 A 
ATOM     48  C60 UNK     0       4.911   4.738  -1.585  0.00  0.00    +0.000 A 
ATOM     49  C58 UNK     0       4.139   3.647  -1.994  0.00  0.00    +0.000 A 
ENDBRANCH  42  44
ENDBRANCH  33  40
ENDBRANCH  30  33
ENDBRANCH  28  30
ENDBRANCH  27  28
ENDBRANCH  18  27
BRANCH  17  50
ATOM     50  O6  UNK     0      -2.062  -2.412   4.818  0.00  0.00    +0.000 OA
BRANCH  50  51
ATOM     51  C39 UNK     0      -2.935  -3.318   5.423  0.00  0.00    +0.000 C 
ATOM     52  C43 UNK     0      -2.818  -3.584   6.886  0.00  0.00    +0.000 C 
ATOM     53  O11 UNK     0      -3.792  -3.943   4.740  0.00  0.00    +0.000 OA
ENDBRANCH  50  51
ENDBRANCH  17  50
BRANCH   7  54
ATOM     54  O3  UNK     0      -1.713   2.082   0.345  0.00  0.00    +0.000 OA
BRANCH  54  55
ATOM     55  C37 UNK     0      -1.975   3.455   0.404  0.00  0.00    +0.000 C 
ATOM     56  O10 UNK     0      -2.434   3.974   1.457  0.00  0.00    +0.000 OA
BRANCH  55  57
ATOM     57  C41 UNK     0      -1.751   4.290  -0.795  0.00  0.00    +0.000 A 
ATOM     58  C45 UNK     0      -1.054   3.770  -1.900  0.00  0.00    +0.000 A 
ATOM     59  C48 UNK     0      -0.856   4.552  -3.042  0.00  0.00    +0.000 A 
ATOM     60  C49 UNK     0      -1.362   5.855  -3.098  0.00  0.00    +0.000 A 
ATOM     61  C47 UNK     0      -2.057   6.382  -2.006  0.00  0.00    +0.000 A 
ATOM     62  C44 UNK     0      -2.250   5.606  -0.857  0.00  0.00    +0.000 A 
ENDBRANCH  55  57
ENDBRANCH  54  55
ENDBRANCH   7  54
BRANCH   4  63
ATOM     63  O2  UNK     0      -1.671  -0.149  -1.480  0.00  0.00    +0.000 OA
BRANCH  63  64
ATOM     64  C36 UNK     0      -1.536  -0.210  -2.879  0.00  0.00    +0.000 C 
ATOM     65  O9  UNK     0      -2.364   0.350  -3.645  0.00  0.00    +0.000 OA
ATOM     66  C38 UNK     0      -0.450  -1.048  -3.462  0.00  0.00    +0.000 C 
ENDBRANCH  63  64
ENDBRANCH   4  63
TORSDOF 17
