REMARK  Name = C:\Users\Maximilian\Desktop\Conformers\converted_pdb\conformers_pdb\Paclitaxel_conf_42.pdb
REMARK  23 active torsions:
REMARK  status: ('A' for Active; 'I' for Inactive)
REMARK    1  A    between atoms: C17_4  and  O2_61
REMARK    2  A    between atoms: C18_5  and  C29_16
REMARK    3  A    between atoms: C20_7  and  O3_52
REMARK    4  A    between atoms: C21_8  and  O4_46
REMARK    5  A    between atoms: C22_9  and  O5_65
REMARK    6  A    between atoms: C24_11  and  C33_20
REMARK    7  A    between atoms: C24_11  and  C34_21
REMARK    8  A    between atoms: C30_17  and  O6_48
REMARK    9  A    between atoms: C31_18  and  O8_23
REMARK   10  A    between atoms: C32_19  and  C35_22
REMARK   11  A    between atoms: O8_23  and  C40_24
REMARK   12  A    between atoms: C40_24  and  C42_26
REMARK   13  A    between atoms: C42_26  and  O13_27
REMARK   14  A    between atoms: C42_26  and  C46_29
REMARK   15  A    between atoms: C46_29  and  N15_30
REMARK   16  A    between atoms: C46_29  and  C50_40
REMARK   17  A    between atoms: C53_32  and  C56_34
REMARK   18  A    between atoms: O6_48  and  C39_49
REMARK   19  A    between atoms: C39_49  and  C43_50
REMARK   20  A    between atoms: O3_52  and  C37_53
REMARK   21  A    between atoms: C37_53  and  C41_55
REMARK   22  A    between atoms: O2_61  and  C36_62
REMARK   23  A    between atoms: C36_62  and  C38_64
REMARK                            x       y       z     vdW  Elec       q    Type
REMARK                         _______ _______ _______ _____ _____    ______ ____
ROOT
ATOM      1  O1  UNK     0      -5.235   1.701  -0.378  0.00  0.00    +0.000 OA
ATOM      2  O7  UNK     0      -0.233  -0.012  -2.750  0.00  0.00    +0.000 OA
ATOM      3  C16 UNK     0      -2.240   0.205  -0.418  0.00  0.00    +0.000 C 
ATOM      4  C17 UNK     0      -3.245   1.254   0.221  0.00  0.00    +0.000 C 
ATOM      5  C18 UNK     0      -2.468   0.019  -1.979  0.00  0.00    +0.000 C 
ATOM      6  C19 UNK     0      -3.976   2.277  -0.651  0.00  0.00    +0.000 C 
ATOM      7  C20 UNK     0      -2.089  -1.089   0.523  0.00  0.00    +0.000 C 
ATOM      8  C21 UNK     0      -0.813  -2.089   0.488  0.00  0.00    +0.000 C 
ATOM      9  C22 UNK     0      -2.497   1.466  -2.604  0.00  0.00    +0.000 C 
ATOM     10  C23 UNK     0      -3.687   2.331  -2.159  0.00  0.00    +0.000 C 
ATOM     11  C24 UNK     0      -0.917  -3.298  -0.548  0.00  0.00    +0.000 C 
ATOM     12  C25 UNK     0      -4.653   0.747   0.481  0.00  0.00    +0.000 C 
ATOM     13  C26 UNK     0      -1.243  -0.688  -2.599  0.00  0.00    +0.000 C 
ATOM     14  C27 UNK     0       0.548  -1.292   0.280  0.00  0.00    +0.000 C 
ATOM     15  C28 UNK     0      -0.285  -2.860  -1.882  0.00  0.00    +0.000 C 
ATOM     16  C29 UNK     0      -3.810  -0.686  -2.340  0.00  0.00    +0.000 C 
ATOM     17  C30 UNK     0      -1.096  -2.162  -2.976  0.00  0.00    +0.000 C 
ATOM     18  C31 UNK     0       1.646  -1.999  -0.550  0.00  0.00    +0.000 C 
ATOM     19  C32 UNK     0       1.050  -2.561  -1.843  0.00  0.00    +0.000 C 
ATOM     20  C33 UNK     0      -2.344  -3.899  -0.681  0.00  0.00    +0.000 C 
ATOM     21  C34 UNK     0      -0.113  -4.562  -0.047  0.00  0.00    +0.000 C 
ATOM     22  C35 UNK     0       1.878  -2.538  -3.111  0.00  0.00    +0.000 C 
ENDROOT
BRANCH   8  23
ATOM     23  O4  UNK     0      -0.757  -2.720   1.758  0.00  0.00    +0.000 OA
ATOM     24  H84 UNK     0      -0.392  -2.099   2.440  0.00  0.00    +0.000 HD
ENDBRANCH   8  23
BRANCH   9  25
ATOM     25  O5  UNK     0      -2.423   1.438  -4.010  0.00  0.00    +0.000 OA
ATOM     26  H85 UNK     0      -3.259   1.012  -4.352  0.00  0.00    +0.000 HD
ENDBRANCH   9  25
BRANCH  18  27
ATOM     27  O8  UNK     0       2.640  -1.014  -0.851  0.00  0.00    +0.000 OA
BRANCH  27  28
ATOM     28  C40 UNK     0       4.019  -1.262  -0.919  0.00  0.00    +0.000 C 
ATOM     29  O12 UNK     0       4.472  -2.414  -0.678  0.00  0.00    +0.000 OA
BRANCH  28  30
ATOM     30  C42 UNK     0       4.974  -0.172  -1.365  0.00  0.00    +0.000 C 
BRANCH  30  31
ATOM     31  O13 UNK     0       6.182  -0.257  -0.648  0.00  0.00    +0.000 OA
ATOM     32 1H10 UNK     0       5.963  -0.281   0.322  0.00  0.00    +0.000 HD
ENDBRANCH  30  31
BRANCH  30  33
ATOM     33  C46 UNK     0       4.360   1.254  -1.279  0.00  0.00    +0.000 C 
BRANCH  33  34
ATOM     34  C50 UNK     0       5.115   2.245  -2.154  0.00  0.00    +0.000 A 
ATOM     35  C52 UNK     0       6.472   2.551  -1.915  0.00  0.00    +0.000 A 
ATOM     36  C55 UNK     0       7.139   3.493  -2.704  0.00  0.00    +0.000 A 
ATOM     37  C57 UNK     0       6.462   4.144  -3.740  0.00  0.00    +0.000 A 
ATOM     38  C54 UNK     0       5.119   3.855  -3.984  0.00  0.00    +0.000 A 
ATOM     39  C51 UNK     0       4.448   2.907  -3.203  0.00  0.00    +0.000 A 
ENDBRANCH  33  34
BRANCH  33  40
ATOM     40  N15 UNK     0       4.332   1.731   0.108  0.00  0.00    +0.000 N 
ATOM     41 3H10 UNK     0       5.228   2.061   0.533  0.00  0.00    +0.000 HD
ATOM     42  C53 UNK     0       3.157   1.670   0.932  0.00  0.00    +0.000 C 
ATOM     43  O14 UNK     0       2.020   1.626   0.389  0.00  0.00    +0.000 OA
BRANCH  42  44
ATOM     44  C56 UNK     0       3.263   1.686   2.411  0.00  0.00    +0.000 A 
ATOM     45  C59 UNK     0       2.143   2.035   3.189  0.00  0.00    +0.000 A 
ATOM     46  C61 UNK     0       2.231   2.082   4.584  0.00  0.00    +0.000 A 
ATOM     47  C62 UNK     0       3.436   1.777   5.220  0.00  0.00    +0.000 A 
ATOM     48  C60 UNK     0       4.552   1.409   4.463  0.00  0.00    +0.000 A 
ATOM     49  C58 UNK     0       4.468   1.355   3.067  0.00  0.00    +0.000 A 
ENDBRANCH  42  44
ENDBRANCH  33  40
ENDBRANCH  30  33
ENDBRANCH  28  30
ENDBRANCH  27  28
ENDBRANCH  18  27
BRANCH  17  50
ATOM     50  O6  UNK     0      -2.325  -2.805  -3.283  0.00  0.00    +0.000 OA
BRANCH  50  51
ATOM     51  C39 UNK     0      -2.415  -3.984  -4.032  0.00  0.00    +0.000 C 
ATOM     52  C43 UNK     0      -3.758  -4.519  -4.388  0.00  0.00    +0.000 C 
ATOM     53  O11 UNK     0      -1.379  -4.596  -4.404  0.00  0.00    +0.000 OA
ENDBRANCH  50  51
ENDBRANCH  17  50
BRANCH   7  54
ATOM     54  O3  UNK     0      -2.182  -0.606   1.869  0.00  0.00    +0.000 OA
BRANCH  54  55
ATOM     55  C37 UNK     0      -3.018  -1.134   2.865  0.00  0.00    +0.000 C 
ATOM     56  O10 UNK     0      -3.754  -2.132   2.626  0.00  0.00    +0.000 OA
BRANCH  55  57
ATOM     57  C41 UNK     0      -3.030  -0.498   4.197  0.00  0.00    +0.000 A 
ATOM     58  C45 UNK     0      -2.049   0.456   4.530  0.00  0.00    +0.000 A 
ATOM     59  C48 UNK     0      -2.074   1.088   5.777  0.00  0.00    +0.000 A 
ATOM     60  C49 UNK     0      -3.068   0.771   6.707  0.00  0.00    +0.000 A 
ATOM     61  C47 UNK     0      -4.039  -0.185   6.391  0.00  0.00    +0.000 A 
ATOM     62  C44 UNK     0      -4.019  -0.822   5.145  0.00  0.00    +0.000 A 
ENDBRANCH  55  57
ENDBRANCH  54  55
ENDBRANCH   7  54
BRANCH   4  63
ATOM     63  O2  UNK     0      -2.728   1.885   1.403  0.00  0.00    +0.000 OA
BRANCH  63  64
ATOM     64  C36 UNK     0      -1.765   2.904   1.400  0.00  0.00    +0.000 C 
ATOM     65  O9  UNK     0      -1.135   3.198   0.347  0.00  0.00    +0.000 OA
ATOM     66  C38 UNK     0      -1.514   3.671   2.651  0.00  0.00    +0.000 C 
ENDBRANCH  63  64
ENDBRANCH   4  63
TORSDOF 17
