REMARK  Name = C:\Users\Maximilian\Desktop\Conformers\converted_pdb\conformers_pdb\Paclitaxel_conf_20.pdb
REMARK  23 active torsions:
REMARK  status: ('A' for Active; 'I' for Inactive)
REMARK    1  A    between atoms: C17_4  and  O2_61
REMARK    2  A    between atoms: C18_5  and  C29_16
REMARK    3  A    between atoms: C20_7  and  O3_52
REMARK    4  A    between atoms: C21_8  and  O4_46
REMARK    5  A    between atoms: C22_9  and  O5_65
REMARK    6  A    between atoms: C24_11  and  C33_20
REMARK    7  A    between atoms: C24_11  and  C34_21
REMARK    8  A    between atoms: C30_17  and  O6_48
REMARK    9  A    between atoms: C31_18  and  O8_23
REMARK   10  A    between atoms: C32_19  and  C35_22
REMARK   11  A    between atoms: O8_23  and  C40_24
REMARK   12  A    between atoms: C40_24  and  C42_26
REMARK   13  A    between atoms: C42_26  and  O13_27
REMARK   14  A    between atoms: C42_26  and  C46_29
REMARK   15  A    between atoms: C46_29  and  N15_30
REMARK   16  A    between atoms: C46_29  and  C50_40
REMARK   17  A    between atoms: C53_32  and  C56_34
REMARK   18  A    between atoms: O6_48  and  C39_49
REMARK   19  A    between atoms: C39_49  and  C43_50
REMARK   20  A    between atoms: O3_52  and  C37_53
REMARK   21  A    between atoms: C37_53  and  C41_55
REMARK   22  A    between atoms: O2_61  and  C36_62
REMARK   23  A    between atoms: C36_62  and  C38_64
REMARK                            x       y       z     vdW  Elec       q    Type
REMARK                         _______ _______ _______ _____ _____    ______ ____
ROOT
ATOM      1  O1  UNK     0      -5.735   0.354   1.955  0.00  0.00    +0.000 OA
ATOM      2  O7  UNK     0      -0.806   3.182   0.985  0.00  0.00    +0.000 OA
ATOM      3  C16 UNK     0      -2.666   0.732   0.723  0.00  0.00    +0.000 C 
ATOM      4  C17 UNK     0      -3.714  -0.153   1.540  0.00  0.00    +0.000 C 
ATOM      5  C18 UNK     0      -2.998   2.304   0.813  0.00  0.00    +0.000 C 
ATOM      6  C19 UNK     0      -4.522   0.495   2.669  0.00  0.00    +0.000 C 
ATOM      7  C20 UNK     0      -2.251  -0.034  -0.642  0.00  0.00    +0.000 C 
ATOM      8  C21 UNK     0      -1.045   0.405  -1.642  0.00  0.00    +0.000 C 
ATOM      9  C22 UNK     0      -3.098   2.652   2.366  0.00  0.00    +0.000 C 
ATOM     10  C23 UNK     0      -4.255   1.948   3.089  0.00  0.00    +0.000 C 
ATOM     11  C24 UNK     0      -1.311   1.644  -2.631  0.00  0.00    +0.000 C 
ATOM     12  C25 UNK     0      -5.079  -0.276   0.875  0.00  0.00    +0.000 C 
ATOM     13  C26 UNK     0      -1.796   3.101   0.262  0.00  0.00    +0.000 C 
ATOM     14  C27 UNK     0       0.268   0.598  -0.797  0.00  0.00    +0.000 C 
ATOM     15  C28 UNK     0      -0.764   2.919  -1.967  0.00  0.00    +0.000 C 
ATOM     16  C29 UNK     0      -4.361   2.781   0.192  0.00  0.00    +0.000 C 
ATOM     17  C30 UNK     0      -1.667   3.791  -1.089  0.00  0.00    +0.000 C 
ATOM     18  C31 UNK     0       1.282   1.580  -1.415  0.00  0.00    +0.000 C 
ATOM     19  C32 UNK     0       0.579   2.922  -1.665  0.00  0.00    +0.000 C 
ATOM     20  C33 UNK     0      -2.790   1.708  -3.081  0.00  0.00    +0.000 C 
ATOM     21  C34 UNK     0      -0.585   1.511  -4.021  0.00  0.00    +0.000 C 
ATOM     22  C35 UNK     0       1.339   4.208  -1.398  0.00  0.00    +0.000 C 
ENDROOT
BRANCH   8  23
ATOM     23  O4  UNK     0      -0.771  -0.704  -2.475  0.00  0.00    +0.000 OA
ATOM     24  H84 UNK     0      -1.604  -0.953  -2.954  0.00  0.00    +0.000 HD
ENDBRANCH   8  23
BRANCH   9  25
ATOM     25  O5  UNK     0      -3.209   4.029   2.666  0.00  0.00    +0.000 OA
ATOM     26  H85 UNK     0      -2.974   4.585   1.878  0.00  0.00    +0.000 HD
ENDBRANCH   9  25
BRANCH  18  27
ATOM     27  O8  UNK     0       2.394   1.699  -0.517  0.00  0.00    +0.000 OA
BRANCH  27  28
ATOM     28  C40 UNK     0       3.717   1.789  -0.969  0.00  0.00    +0.000 C 
ATOM     29  O12 UNK     0       4.030   2.634  -1.849  0.00  0.00    +0.000 OA
BRANCH  28  30
ATOM     30  C42 UNK     0       4.746   0.746  -0.590  0.00  0.00    +0.000 C 
BRANCH  30  31
ATOM     31  O13 UNK     0       4.861  -0.170  -1.647  0.00  0.00    +0.000 OA
ATOM     32 1H10 UNK     0       3.964  -0.556  -1.817  0.00  0.00    +0.000 HD
ENDBRANCH  30  31
BRANCH  30  33
ATOM     33  C46 UNK     0       4.458   0.023   0.771  0.00  0.00    +0.000 C 
BRANCH  33  34
ATOM     34  C50 UNK     0       5.158   0.677   1.968  0.00  0.00    +0.000 A 
ATOM     35  C52 UNK     0       5.342   2.078   2.047  0.00  0.00    +0.000 A 
ATOM     36  C55 UNK     0       5.998   2.652   3.139  0.00  0.00    +0.000 A 
ATOM     37  C57 UNK     0       6.451   1.848   4.187  0.00  0.00    +0.000 A 
ATOM     38  C54 UNK     0       6.225   0.473   4.158  0.00  0.00    +0.000 A 
ATOM     39  C51 UNK     0       5.570  -0.107   3.069  0.00  0.00    +0.000 A 
ENDBRANCH  33  34
BRANCH  33  40
ATOM     40  N15 UNK     0       4.881  -1.382   0.657  0.00  0.00    +0.000 N 
ATOM     41 3H10 UNK     0       5.902  -1.582   0.567  0.00  0.00    +0.000 HD
ATOM     42  C53 UNK     0       3.945  -2.461   0.516  0.00  0.00    +0.000 C 
ATOM     43  O14 UNK     0       2.777  -2.345   0.987  0.00  0.00    +0.000 OA
BRANCH  42  44
ATOM     44  C56 UNK     0       4.329  -3.726  -0.161  0.00  0.00    +0.000 A 
ATOM     45  C59 UNK     0       5.400  -3.766  -1.074  0.00  0.00    +0.000 A 
ATOM     46  C61 UNK     0       5.729  -4.960  -1.728  0.00  0.00    +0.000 A 
ATOM     47  C62 UNK     0       4.982  -6.115  -1.494  0.00  0.00    +0.000 A 
ATOM     48  C60 UNK     0       3.918  -6.086  -0.591  0.00  0.00    +0.000 A 
ATOM     49  C58 UNK     0       3.592  -4.902   0.070  0.00  0.00    +0.000 A 
ENDBRANCH  42  44
ENDBRANCH  33  40
ENDBRANCH  30  33
ENDBRANCH  28  30
ENDBRANCH  27  28
ENDBRANCH  18  27
BRANCH  17  50
ATOM     50  O6  UNK     0      -2.913   4.127  -1.696  0.00  0.00    +0.000 OA
BRANCH  50  51
ATOM     51  C39 UNK     0      -3.037   5.031  -2.761  0.00  0.00    +0.000 C 
ATOM     52  C43 UNK     0      -4.384   5.589  -3.087  0.00  0.00    +0.000 C 
ATOM     53  O11 UNK     0      -2.046   5.316  -3.483  0.00  0.00    +0.000 OA
ENDBRANCH  50  51
ENDBRANCH  17  50
BRANCH   7  54
ATOM     54  O3  UNK     0      -1.858  -1.346  -0.210  0.00  0.00    +0.000 OA
BRANCH  54  55
ATOM     55  C37 UNK     0      -2.230  -2.567  -0.793  0.00  0.00    +0.000 C 
ATOM     56  O10 UNK     0      -3.141  -2.616  -1.661  0.00  0.00    +0.000 OA
BRANCH  55  57
ATOM     57  C41 UNK     0      -1.541  -3.797  -0.351  0.00  0.00    +0.000 A 
ATOM     58  C45 UNK     0      -0.599  -3.738   0.691  0.00  0.00    +0.000 A 
ATOM     59  C48 UNK     0       0.015  -4.905   1.158  0.00  0.00    +0.000 A 
ATOM     60  C49 UNK     0      -0.266  -6.133   0.559  0.00  0.00    +0.000 A 
ATOM     61  C47 UNK     0      -1.181  -6.202  -0.497  0.00  0.00    +0.000 A 
ATOM     62  C44 UNK     0      -1.826  -5.044  -0.943  0.00  0.00    +0.000 A 
ENDBRANCH  55  57
ENDBRANCH  54  55
ENDBRANCH   7  54
BRANCH   4  63
ATOM     63  O2  UNK     0      -3.158  -1.422   1.959  0.00  0.00    +0.000 OA
BRANCH  63  64
ATOM     64  C36 UNK     0      -3.820  -2.492   2.597  0.00  0.00    +0.000 C 
ATOM     65  O9  UNK     0      -5.052  -2.443   2.872  0.00  0.00    +0.000 OA
ATOM     66  C38 UNK     0      -3.059  -3.735   2.929  0.00  0.00    +0.000 C 
ENDBRANCH  63  64
ENDBRANCH   4  63
TORSDOF 17
