REMARK  Name = C:\Users\Maximilian\Desktop\Conformers\converted_pdb\conformers_pdb\Paclitaxel_conf_28.pdb
REMARK  23 active torsions:
REMARK  status: ('A' for Active; 'I' for Inactive)
REMARK    1  A    between atoms: C17_4  and  O2_61
REMARK    2  A    between atoms: C18_5  and  C29_16
REMARK    3  A    between atoms: C20_7  and  O3_52
REMARK    4  A    between atoms: C21_8  and  O4_46
REMARK    5  A    between atoms: C22_9  and  O5_65
REMARK    6  A    between atoms: C24_11  and  C33_20
REMARK    7  A    between atoms: C24_11  and  C34_21
REMARK    8  A    between atoms: C30_17  and  O6_48
REMARK    9  A    between atoms: C31_18  and  O8_23
REMARK   10  A    between atoms: C32_19  and  C35_22
REMARK   11  A    between atoms: O8_23  and  C40_24
REMARK   12  A    between atoms: C40_24  and  C42_26
REMARK   13  A    between atoms: C42_26  and  O13_27
REMARK   14  A    between atoms: C42_26  and  C46_29
REMARK   15  A    between atoms: C46_29  and  N15_30
REMARK   16  A    between atoms: C46_29  and  C50_40
REMARK   17  A    between atoms: C53_32  and  C56_34
REMARK   18  A    between atoms: O6_48  and  C39_49
REMARK   19  A    between atoms: C39_49  and  C43_50
REMARK   20  A    between atoms: O3_52  and  C37_53
REMARK   21  A    between atoms: C37_53  and  C41_55
REMARK   22  A    between atoms: O2_61  and  C36_62
REMARK   23  A    between atoms: C36_62  and  C38_64
REMARK                            x       y       z     vdW  Elec       q    Type
REMARK                         _______ _______ _______ _____ _____    ______ ____
ROOT
ATOM      1  O1  UNK     0      -4.028   1.220  -2.861  0.00  0.00    +0.000 OA
ATOM      2  O7  UNK     0      -5.295  -1.897   1.992  0.00  0.00    +0.000 OA
ATOM      3  C16 UNK     0      -2.844  -0.095  -0.015  0.00  0.00    +0.000 C 
ATOM      4  C17 UNK     0      -2.598   0.562  -1.430  0.00  0.00    +0.000 C 
ATOM      5  C18 UNK     0      -4.184  -0.950   0.092  0.00  0.00    +0.000 C 
ATOM      6  C19 UNK     0      -3.344   0.001  -2.650  0.00  0.00    +0.000 C 
ATOM      7  C20 UNK     0      -2.523   0.888   1.204  0.00  0.00    +0.000 C 
ATOM      8  C21 UNK     0      -1.427   0.430   2.277  0.00  0.00    +0.000 C 
ATOM      9  C22 UNK     0      -4.226  -1.907  -1.138  0.00  0.00    +0.000 C 
ATOM     10  C23 UNK     0      -4.341  -1.161  -2.469  0.00  0.00    +0.000 C 
ATOM     11  C24 UNK     0      -1.842  -0.836   3.119  0.00  0.00    +0.000 C 
ATOM     12  C25 UNK     0      -3.385   1.821  -1.759  0.00  0.00    +0.000 C 
ATOM     13  C26 UNK     0      -4.244  -1.840   1.363  0.00  0.00    +0.000 C 
ATOM     14  C27 UNK     0      -0.031   0.182   1.569  0.00  0.00    +0.000 C 
ATOM     15  C28 UNK     0      -1.849  -2.029   2.139  0.00  0.00    +0.000 C 
ATOM     16  C29 UNK     0      -5.457  -0.039   0.087  0.00  0.00    +0.000 C 
ATOM     17  C30 UNK     0      -3.132  -2.781   1.804  0.00  0.00    +0.000 C 
ATOM     18  C31 UNK     0       0.453  -1.295   1.488  0.00  0.00    +0.000 C 
ATOM     19  C32 UNK     0      -0.694  -2.291   1.450  0.00  0.00    +0.000 C 
ATOM     20  C33 UNK     0      -3.184  -0.597   3.888  0.00  0.00    +0.000 C 
ATOM     21  C34 UNK     0      -0.801  -1.131   4.264  0.00  0.00    +0.000 C 
ATOM     22  C35 UNK     0      -0.508  -3.576   0.662  0.00  0.00    +0.000 C 
ENDROOT
BRANCH   8  23
ATOM     23  O4  UNK     0      -1.280   1.483   3.209  0.00  0.00    +0.000 OA
ATOM     24  H84 UNK     0      -0.791   2.234   2.786  0.00  0.00    +0.000 HD
ENDBRANCH   8  23
BRANCH   9  25
ATOM     25  O5  UNK     0      -5.309  -2.801  -1.046  0.00  0.00    +0.000 OA
ATOM     26  H85 UNK     0      -4.984  -3.622  -0.600  0.00  0.00    +0.000 HD
ENDBRANCH   9  25
BRANCH  18  27
ATOM     27  O8  UNK     0       1.288  -1.467   0.341  0.00  0.00    +0.000 OA
BRANCH  27  28
ATOM     28  C40 UNK     0       2.656  -1.162   0.334  0.00  0.00    +0.000 C 
ATOM     29  O12 UNK     0       3.139  -0.339   1.157  0.00  0.00    +0.000 OA
BRANCH  28  30
ATOM     30  C42 UNK     0       3.558  -1.895  -0.622  0.00  0.00    +0.000 C 
BRANCH  30  31
ATOM     31  O13 UNK     0       4.507  -2.635   0.097  0.00  0.00    +0.000 OA
ATOM     32 1H10 UNK     0       4.030  -3.416   0.485  0.00  0.00    +0.000 HD
ENDBRANCH  30  31
BRANCH  30  33
ATOM     33  C46 UNK     0       4.259  -0.937  -1.608  0.00  0.00    +0.000 C 
BRANCH  33  34
ATOM     34  C50 UNK     0       4.949  -1.721  -2.705  0.00  0.00    +0.000 A 
ATOM     35  C52 UNK     0       4.272  -1.979  -3.911  0.00  0.00    +0.000 A 
ATOM     36  C55 UNK     0       4.871  -2.756  -4.907  0.00  0.00    +0.000 A 
ATOM     37  C57 UNK     0       6.146  -3.290  -4.708  0.00  0.00    +0.000 A 
ATOM     38  C54 UNK     0       6.823  -3.054  -3.508  0.00  0.00    +0.000 A 
ATOM     39  C51 UNK     0       6.227  -2.282  -2.506  0.00  0.00    +0.000 A 
ENDBRANCH  33  34
BRANCH  33  40
ATOM     40  N15 UNK     0       5.205  -0.048  -0.924  0.00  0.00    +0.000 N 
ATOM     41 3H10 UNK     0       5.687  -0.377  -0.059  0.00  0.00    +0.000 HD
ATOM     42  C53 UNK     0       5.582   1.223  -1.477  0.00  0.00    +0.000 C 
ATOM     43  O14 UNK     0       5.287   1.495  -2.675  0.00  0.00    +0.000 OA
BRANCH  42  44
ATOM     44  C56 UNK     0       6.305   2.230  -0.663  0.00  0.00    +0.000 A 
ATOM     45  C59 UNK     0       6.229   2.218   0.742  0.00  0.00    +0.000 A 
ATOM     46  C61 UNK     0       6.912   3.179   1.497  0.00  0.00    +0.000 A 
ATOM     47  C62 UNK     0       7.672   4.162   0.860  0.00  0.00    +0.000 A 
ATOM     48  C60 UNK     0       7.749   4.190  -0.534  0.00  0.00    +0.000 A 
ATOM     49  C58 UNK     0       7.070   3.231  -1.293  0.00  0.00    +0.000 A 
ENDBRANCH  42  44
ENDBRANCH  33  40
ENDBRANCH  30  33
ENDBRANCH  28  30
ENDBRANCH  27  28
ENDBRANCH  18  27
BRANCH  17  50
ATOM     50  O6  UNK     0      -3.514  -3.543   2.951  0.00  0.00    +0.000 OA
BRANCH  50  51
ATOM     51  C39 UNK     0      -4.397  -4.629   2.908  0.00  0.00    +0.000 C 
ATOM     52  C43 UNK     0      -4.811  -5.290   4.178  0.00  0.00    +0.000 C 
ATOM     53  O11 UNK     0      -4.807  -5.084   1.805  0.00  0.00    +0.000 OA
ENDBRANCH  50  51
ENDBRANCH  17  50
BRANCH   7  54
ATOM     54  O3  UNK     0      -2.116   2.165   0.691  0.00  0.00    +0.000 OA
BRANCH  54  55
ATOM     55  C37 UNK     0      -2.642   3.400   1.105  0.00  0.00    +0.000 C 
ATOM     56  O10 UNK     0      -3.437   3.466   2.081  0.00  0.00    +0.000 OA
BRANCH  55  57
ATOM     57  C41 UNK     0      -2.273   4.628   0.369  0.00  0.00    +0.000 A 
ATOM     58  C45 UNK     0      -2.965   5.834   0.592  0.00  0.00    +0.000 A 
ATOM     59  C48 UNK     0      -2.636   6.983  -0.137  0.00  0.00    +0.000 A 
ATOM     60  C49 UNK     0      -1.614   6.938  -1.091  0.00  0.00    +0.000 A 
ATOM     61  C47 UNK     0      -0.915   5.750  -1.311  0.00  0.00    +0.000 A 
ATOM     62  C44 UNK     0      -1.241   4.599  -0.585  0.00  0.00    +0.000 A 
ENDBRANCH  55  57
ENDBRANCH  54  55
ENDBRANCH   7  54
BRANCH   4  63
ATOM     63  O2  UNK     0      -1.184   0.706  -1.656  0.00  0.00    +0.000 OA
BRANCH  63  64
ATOM     64  C36 UNK     0      -0.535   1.084  -2.839  0.00  0.00    +0.000 C 
ATOM     65  O9  UNK     0      -1.076   1.867  -3.672  0.00  0.00    +0.000 OA
ATOM     66  C38 UNK     0       0.795   0.482  -3.147  0.00  0.00    +0.000 C 
ENDBRANCH  63  64
ENDBRANCH   4  63
TORSDOF 17
