REMARK  Name = C:\Users\Maximilian\Desktop\Conformers\converted_pdb\conformers_pdb\Paclitaxel_conf_2.pdb
REMARK  23 active torsions:
REMARK  status: ('A' for Active; 'I' for Inactive)
REMARK    1  A    between atoms: C17_4  and  O2_61
REMARK    2  A    between atoms: C18_5  and  C29_16
REMARK    3  A    between atoms: C20_7  and  O3_52
REMARK    4  A    between atoms: C21_8  and  O4_46
REMARK    5  A    between atoms: C22_9  and  O5_65
REMARK    6  A    between atoms: C24_11  and  C33_20
REMARK    7  A    between atoms: C24_11  and  C34_21
REMARK    8  A    between atoms: C30_17  and  O6_48
REMARK    9  A    between atoms: C31_18  and  O8_23
REMARK   10  A    between atoms: C32_19  and  C35_22
REMARK   11  A    between atoms: O8_23  and  C40_24
REMARK   12  A    between atoms: C40_24  and  C42_26
REMARK   13  A    between atoms: C42_26  and  O13_27
REMARK   14  A    between atoms: C42_26  and  C46_29
REMARK   15  A    between atoms: C46_29  and  N15_30
REMARK   16  A    between atoms: C46_29  and  C50_40
REMARK   17  A    between atoms: C53_32  and  C56_34
REMARK   18  A    between atoms: O6_48  and  C39_49
REMARK   19  A    between atoms: C39_49  and  C43_50
REMARK   20  A    between atoms: O3_52  and  C37_53
REMARK   21  A    between atoms: C37_53  and  C41_55
REMARK   22  A    between atoms: O2_61  and  C36_62
REMARK   23  A    between atoms: C36_62  and  C38_64
REMARK                            x       y       z     vdW  Elec       q    Type
REMARK                         _______ _______ _______ _____ _____    ______ ____
ROOT
ATOM      1  O1  UNK     0      -4.255  -0.622   2.630  0.00  0.00    +0.000 OA
ATOM      2  O7  UNK     0      -4.116   3.730  -1.329  0.00  0.00    +0.000 OA
ATOM      3  C16 UNK     0      -2.967   0.369  -0.278  0.00  0.00    +0.000 C 
ATOM      4  C17 UNK     0      -2.990  -0.656   0.924  0.00  0.00    +0.000 C 
ATOM      5  C18 UNK     0      -3.931   1.652  -0.164  0.00  0.00    +0.000 C 
ATOM      6  C19 UNK     0      -3.024  -0.007   2.300  0.00  0.00    +0.000 C 
ATOM      7  C20 UNK     0      -2.895  -0.299  -1.719  0.00  0.00    +0.000 C 
ATOM      8  C21 UNK     0      -1.604   0.001  -2.618  0.00  0.00    +0.000 C 
ATOM      9  C22 UNK     0      -4.176   2.065   1.346  0.00  0.00    +0.000 C 
ATOM     10  C23 UNK     0      -3.109   1.525   2.306  0.00  0.00    +0.000 C 
ATOM     11  C24 UNK     0      -1.359   1.529  -2.942  0.00  0.00    +0.000 C 
ATOM     12  C25 UNK     0      -4.312  -1.259   1.370  0.00  0.00    +0.000 C 
ATOM     13  C26 UNK     0      -3.331   2.900  -0.881  0.00  0.00    +0.000 C 
ATOM     14  C27 UNK     0      -0.323  -0.622  -1.953  0.00  0.00    +0.000 C 
ATOM     15  C28 UNK     0      -0.964   2.217  -1.619  0.00  0.00    +0.000 C 
ATOM     16  C29 UNK     0      -5.329   1.403  -0.844  0.00  0.00    +0.000 C 
ATOM     17  C30 UNK     0      -1.846   3.267  -0.930  0.00  0.00    +0.000 C 
ATOM     18  C31 UNK     0       0.667   0.341  -1.233  0.00  0.00    +0.000 C 
ATOM     19  C32 UNK     0       0.116   1.728  -0.945  0.00  0.00    +0.000 C 
ATOM     20  C33 UNK     0      -2.569   2.197  -3.667  0.00  0.00    +0.000 C 
ATOM     21  C34 UNK     0      -0.189   1.716  -3.962  0.00  0.00    +0.000 C 
ATOM     22  C35 UNK     0       0.818   2.540   0.125  0.00  0.00    +0.000 C 
ENDROOT
BRANCH   8  23
ATOM     23  O4  UNK     0      -1.766  -0.686  -3.845  0.00  0.00    +0.000 OA
ATOM     24  H84 UNK     0      -2.642  -0.443  -4.237  0.00  0.00    +0.000 HD
ENDBRANCH   8  23
BRANCH   9  25
ATOM     25  O5  UNK     0      -5.444   1.646   1.803  0.00  0.00    +0.000 OA
ATOM     26  H85 UNK     0      -5.712   2.252   2.544  0.00  0.00    +0.000 HD
ENDBRANCH   9  25
BRANCH  18  27
ATOM     27  O8  UNK     0       1.109  -0.248  -0.006  0.00  0.00    +0.000 OA
BRANCH  27  28
ATOM     28  C40 UNK     0       2.019  -1.310   0.042  0.00  0.00    +0.000 C 
ATOM     29  O12 UNK     0       2.162  -2.075  -0.948  0.00  0.00    +0.000 OA
BRANCH  28  30
ATOM     30  C42 UNK     0       2.927  -1.459   1.234  0.00  0.00    +0.000 C 
BRANCH  30  31
ATOM     31  O13 UNK     0       2.190  -1.328   2.423  0.00  0.00    +0.000 OA
ATOM     32 1H10 UNK     0       1.884  -0.386   2.488  0.00  0.00    +0.000 HD
ENDBRANCH  30  31
BRANCH  30  33
ATOM     33  C46 UNK     0       4.078  -0.427   1.167  0.00  0.00    +0.000 C 
BRANCH  33  34
ATOM     34  C50 UNK     0       4.919  -0.643  -0.078  0.00  0.00    +0.000 A 
ATOM     35  C52 UNK     0       4.724   0.173  -1.208  0.00  0.00    +0.000 A 
ATOM     36  C55 UNK     0       5.457  -0.052  -2.378  0.00  0.00    +0.000 A 
ATOM     37  C57 UNK     0       6.385  -1.097  -2.432  0.00  0.00    +0.000 A 
ATOM     38  C54 UNK     0       6.577  -1.920  -1.322  0.00  0.00    +0.000 A 
ATOM     39  C51 UNK     0       5.848  -1.699  -0.149  0.00  0.00    +0.000 A 
ENDBRANCH  33  34
BRANCH  33  40
ATOM     40  N15 UNK     0       4.925  -0.503   2.362  0.00  0.00    +0.000 N 
ATOM     41 3H10 UNK     0       5.008  -1.424   2.853  0.00  0.00    +0.000 HD
ATOM     42  C53 UNK     0       5.796   0.582   2.738  0.00  0.00    +0.000 C 
ATOM     43  O14 UNK     0       5.858   1.614   2.013  0.00  0.00    +0.000 OA
BRANCH  42  44
ATOM     44  C56 UNK     0       6.638   0.507   3.953  0.00  0.00    +0.000 A 
ATOM     45  C59 UNK     0       6.291  -0.331   5.031  0.00  0.00    +0.000 A 
ATOM     46  C61 UNK     0       7.099  -0.386   6.171  0.00  0.00    +0.000 A 
ATOM     47  C62 UNK     0       8.252   0.398   6.255  0.00  0.00    +0.000 A 
ATOM     48  C60 UNK     0       8.599   1.239   5.197  0.00  0.00    +0.000 A 
ATOM     49  C58 UNK     0       7.795   1.299   4.055  0.00  0.00    +0.000 A 
ENDBRANCH  42  44
ENDBRANCH  33  40
ENDBRANCH  30  33
ENDBRANCH  28  30
ENDBRANCH  27  28
ENDBRANCH  18  27
BRANCH  17  50
ATOM     50  O6  UNK     0      -1.630   4.528  -1.571  0.00  0.00    +0.000 OA
BRANCH  50  51
ATOM     51  C39 UNK     0      -2.008   5.756  -1.019  0.00  0.00    +0.000 C 
ATOM     52  C43 UNK     0      -1.744   7.012  -1.773  0.00  0.00    +0.000 C 
ATOM     53  O11 UNK     0      -2.577   5.809   0.104  0.00  0.00    +0.000 OA
ENDBRANCH  50  51
ENDBRANCH  17  50
BRANCH   7  54
ATOM     54  O3  UNK     0      -3.047  -1.719  -1.596  0.00  0.00    +0.000 OA
BRANCH  54  55
ATOM     55  C37 UNK     0      -3.903  -2.508  -2.378  0.00  0.00    +0.000 C 
ATOM     56  O10 UNK     0      -4.663  -1.976  -3.236  0.00  0.00    +0.000 OA
BRANCH  55  57
ATOM     57  C41 UNK     0      -3.926  -3.971  -2.180  0.00  0.00    +0.000 A 
ATOM     58  C45 UNK     0      -4.909  -4.768  -2.797  0.00  0.00    +0.000 A 
ATOM     59  C48 UNK     0      -4.926  -6.154  -2.592  0.00  0.00    +0.000 A 
ATOM     60  C49 UNK     0      -3.965  -6.755  -1.777  0.00  0.00    +0.000 A 
ATOM     61  C47 UNK     0      -2.986  -5.973  -1.161  0.00  0.00    +0.000 A 
ATOM     62  C44 UNK     0      -2.965  -4.589  -1.361  0.00  0.00    +0.000 A 
ENDBRANCH  55  57
ENDBRANCH  54  55
ENDBRANCH   7  54
BRANCH   4  63
ATOM     63  O2  UNK     0      -1.919  -1.619   0.810  0.00  0.00    +0.000 OA
BRANCH  63  64
ATOM     64  C36 UNK     0      -1.593  -2.661   1.699  0.00  0.00    +0.000 C 
ATOM     65  O9  UNK     0      -2.242  -2.846   2.767  0.00  0.00    +0.000 OA
ATOM     66  C38 UNK     0      -0.445  -3.556   1.385  0.00  0.00    +0.000 C 
ENDBRANCH  63  64
ENDBRANCH   4  63
TORSDOF 17
