REMARK  Name = C:\Users\Maximilian\Desktop\Conformers\converted_pdb\conformers_pdb\Paclitaxel_conf_1.pdb
REMARK  23 active torsions:
REMARK  status: ('A' for Active; 'I' for Inactive)
REMARK    1  A    between atoms: C17_4  and  O2_61
REMARK    2  A    between atoms: C18_5  and  C29_16
REMARK    3  A    between atoms: C20_7  and  O3_52
REMARK    4  A    between atoms: C21_8  and  O4_46
REMARK    5  A    between atoms: C22_9  and  O5_65
REMARK    6  A    between atoms: C24_11  and  C33_20
REMARK    7  A    between atoms: C24_11  and  C34_21
REMARK    8  A    between atoms: C30_17  and  O6_48
REMARK    9  A    between atoms: C31_18  and  O8_23
REMARK   10  A    between atoms: C32_19  and  C35_22
REMARK   11  A    between atoms: O8_23  and  C40_24
REMARK   12  A    between atoms: C40_24  and  C42_26
REMARK   13  A    between atoms: C42_26  and  O13_27
REMARK   14  A    between atoms: C42_26  and  C46_29
REMARK   15  A    between atoms: C46_29  and  N15_30
REMARK   16  A    between atoms: C46_29  and  C50_40
REMARK   17  A    between atoms: C53_32  and  C56_34
REMARK   18  A    between atoms: O6_48  and  C39_49
REMARK   19  A    between atoms: C39_49  and  C43_50
REMARK   20  A    between atoms: O3_52  and  C37_53
REMARK   21  A    between atoms: C37_53  and  C41_55
REMARK   22  A    between atoms: O2_61  and  C36_62
REMARK   23  A    between atoms: C36_62  and  C38_64
REMARK                            x       y       z     vdW  Elec       q    Type
REMARK                         _______ _______ _______ _____ _____    ______ ____
ROOT
ATOM      1  O1  UNK     0      -4.542   2.660  -1.575  0.00  0.00    +0.000 OA
ATOM      2  O7  UNK     0      -1.007  -1.841  -3.491  0.00  0.00    +0.000 OA
ATOM      3  C16 UNK     0      -2.509  -0.047  -0.766  0.00  0.00    +0.000 C 
ATOM      4  C17 UNK     0      -2.921   1.500  -0.802  0.00  0.00    +0.000 C 
ATOM      5  C18 UNK     0      -2.770  -0.865  -2.146  0.00  0.00    +0.000 C 
ATOM      6  C19 UNK     0      -3.319   2.197  -2.107  0.00  0.00    +0.000 C 
ATOM      7  C20 UNK     0      -2.952  -0.704   0.651  0.00  0.00    +0.000 C 
ATOM      8  C21 UNK     0      -1.870  -1.460   1.559  0.00  0.00    +0.000 C 
ATOM      9  C22 UNK     0      -2.701   0.133  -3.372  0.00  0.00    +0.000 C 
ATOM     10  C23 UNK     0      -3.656   1.296  -3.279  0.00  0.00    +0.000 C 
ATOM     11  C24 UNK     0      -1.529  -2.898   1.054  0.00  0.00    +0.000 C 
ATOM     12  C25 UNK     0      -4.351   1.898  -0.414  0.00  0.00    +0.000 C 
ATOM     13  C26 UNK     0      -1.675  -1.953  -2.462  0.00  0.00    +0.000 C 
ATOM     14  C27 UNK     0      -0.565  -0.593   1.725  0.00  0.00    +0.000 C 
ATOM     15  C28 UNK     0      -0.783  -2.731  -0.275  0.00  0.00    +0.000 C 
ATOM     16  C29 UNK     0      -4.168  -1.545  -2.149  0.00  0.00    +0.000 C 
ATOM     17  C30 UNK     0      -1.317  -3.171  -1.636  0.00  0.00    +0.000 C 
ATOM     18  C31 UNK     0       0.656  -0.978   0.851  0.00  0.00    +0.000 C 
ATOM     19  C32 UNK     0       0.351  -1.960  -0.268  0.00  0.00    +0.000 C 
ATOM     20  C33 UNK     0      -2.813  -3.785   1.028  0.00  0.00    +0.000 C 
ATOM     21  C34 UNK     0      -0.599  -3.654   2.055  0.00  0.00    +0.000 C 
ATOM     22  C35 UNK     0       1.424  -2.111  -1.337  0.00  0.00    +0.000 C 
ENDROOT
BRANCH   8  23
ATOM     23  O4  UNK     0      -2.444  -1.638   2.846  0.00  0.00    +0.000 OA
ATOM     24  H84 UNK     0      -2.364  -0.799   3.373  0.00  0.00    +0.000 HD
ENDBRANCH   8  23
BRANCH   9  25
ATOM     25  O5  UNK     0      -2.967  -0.542  -4.583  0.00  0.00    +0.000 OA
ATOM     26  H85 UNK     0      -2.543  -0.014  -5.313  0.00  0.00    +0.000 HD
ENDBRANCH   9  25
BRANCH  18  27
ATOM     27  O8  UNK     0       1.238   0.199   0.292  0.00  0.00    +0.000 OA
BRANCH  27  28
ATOM     28  C40 UNK     0       2.023   1.095   1.038  0.00  0.00    +0.000 C 
ATOM     29  O12 UNK     0       1.905   1.164   2.292  0.00  0.00    +0.000 OA
BRANCH  28  30
ATOM     30  C42 UNK     0       3.067   1.925   0.341  0.00  0.00    +0.000 C 
BRANCH  30  31
ATOM     31  O13 UNK     0       2.487   2.638  -0.722  0.00  0.00    +0.000 OA
ATOM     32 1H10 UNK     0       2.175   1.984  -1.401  0.00  0.00    +0.000 HD
ENDBRANCH  30  31
BRANCH  30  33
ATOM     33  C46 UNK     0       4.228   1.033  -0.166  0.00  0.00    +0.000 C 
BRANCH  33  34
ATOM     34  C50 UNK     0       4.896   0.274   0.967  0.00  0.00    +0.000 A 
ATOM     35  C52 UNK     0       5.524   0.954   2.029  0.00  0.00    +0.000 A 
ATOM     36  C55 UNK     0       6.128   0.239   3.066  0.00  0.00    +0.000 A 
ATOM     37  C57 UNK     0       6.123  -1.158   3.054  0.00  0.00    +0.000 A 
ATOM     38  C54 UNK     0       5.508  -1.844   2.004  0.00  0.00    +0.000 A 
ATOM     39  C51 UNK     0       4.898  -1.133   0.965  0.00  0.00    +0.000 A 
ENDBRANCH  33  34
BRANCH  33  40
ATOM     40  N15 UNK     0       5.236   1.839  -0.861  0.00  0.00    +0.000 N 
ATOM     41 3H10 UNK     0       5.555   2.718  -0.390  0.00  0.00    +0.000 HD
ATOM     42  C53 UNK     0       6.010   1.290  -1.951  0.00  0.00    +0.000 C 
ATOM     43  O14 UNK     0       5.714   0.153  -2.418  0.00  0.00    +0.000 OA
BRANCH  42  44
ATOM     44  C56 UNK     0       7.157   2.031  -2.546  0.00  0.00    +0.000 A 
ATOM     45  C59 UNK     0       8.073   1.341  -3.364  0.00  0.00    +0.000 A 
ATOM     46  C61 UNK     0       9.153   2.012  -3.946  0.00  0.00    +0.000 A 
ATOM     47  C62 UNK     0       9.324   3.381  -3.724  0.00  0.00    +0.000 A 
ATOM     48  C60 UNK     0       8.418   4.086  -2.925  0.00  0.00    +0.000 A 
ATOM     49  C58 UNK     0       7.336   3.418  -2.346  0.00  0.00    +0.000 A 
ENDBRANCH  42  44
ENDBRANCH  33  40
ENDBRANCH  30  33
ENDBRANCH  28  30
ENDBRANCH  27  28
ENDBRANCH  18  27
BRANCH  17  50
ATOM     50  O6  UNK     0      -2.400  -4.098  -1.642  0.00  0.00    +0.000 OA
BRANCH  50  51
ATOM     51  C39 UNK     0      -2.236  -5.489  -1.665  0.00  0.00    +0.000 C 
ATOM     52  C43 UNK     0      -3.430  -6.364  -1.814  0.00  0.00    +0.000 C 
ATOM     53  O11 UNK     0      -1.100  -6.009  -1.494  0.00  0.00    +0.000 OA
ENDBRANCH  50  51
ENDBRANCH  17  50
BRANCH   7  54
ATOM     54  O3  UNK     0      -3.482   0.314   1.511  0.00  0.00    +0.000 OA
BRANCH  54  55
ATOM     55  C37 UNK     0      -4.630   0.185   2.309  0.00  0.00    +0.000 C 
ATOM     56  O10 UNK     0      -5.377  -0.826   2.202  0.00  0.00    +0.000 OA
BRANCH  55  57
ATOM     57  C41 UNK     0      -4.952   1.247   3.281  0.00  0.00    +0.000 A 
ATOM     58  C45 UNK     0      -4.043   2.297   3.509  0.00  0.00    +0.000 A 
ATOM     59  C48 UNK     0      -4.329   3.288   4.453  0.00  0.00    +0.000 A 
ATOM     60  C49 UNK     0      -5.517   3.235   5.184  0.00  0.00    +0.000 A 
ATOM     61  C47 UNK     0      -6.420   2.192   4.972  0.00  0.00    +0.000 A 
ATOM     62  C44 UNK     0      -6.138   1.197   4.031  0.00  0.00    +0.000 A 
ENDBRANCH  55  57
ENDBRANCH  54  55
ENDBRANCH   7  54
BRANCH   4  63
ATOM     63  O2  UNK     0      -1.934   2.248  -0.060  0.00  0.00    +0.000 OA
BRANCH  63  64
ATOM     64  C36 UNK     0      -1.910   3.626   0.226  0.00  0.00    +0.000 C 
ATOM     65  O9  UNK     0      -2.818   4.405  -0.172  0.00  0.00    +0.000 OA
ATOM     66  C38 UNK     0      -0.808   4.162   1.077  0.00  0.00    +0.000 C 
ENDBRANCH  63  64
ENDBRANCH   4  63
TORSDOF 17
