REMARK  Name = C:\Users\Maximilian\Desktop\Conformers\converted_pdb\conformers_pdb\Paclitaxel_conf_26.pdb
REMARK  23 active torsions:
REMARK  status: ('A' for Active; 'I' for Inactive)
REMARK    1  A    between atoms: C17_4  and  O2_61
REMARK    2  A    between atoms: C18_5  and  C29_16
REMARK    3  A    between atoms: C20_7  and  O3_52
REMARK    4  A    between atoms: C21_8  and  O4_46
REMARK    5  A    between atoms: C22_9  and  O5_65
REMARK    6  A    between atoms: C24_11  and  C33_20
REMARK    7  A    between atoms: C24_11  and  C34_21
REMARK    8  A    between atoms: C30_17  and  O6_48
REMARK    9  A    between atoms: C31_18  and  O8_23
REMARK   10  A    between atoms: C32_19  and  C35_22
REMARK   11  A    between atoms: O8_23  and  C40_24
REMARK   12  A    between atoms: C40_24  and  C42_26
REMARK   13  A    between atoms: C42_26  and  O13_27
REMARK   14  A    between atoms: C42_26  and  C46_29
REMARK   15  A    between atoms: C46_29  and  N15_30
REMARK   16  A    between atoms: C46_29  and  C50_40
REMARK   17  A    between atoms: C53_32  and  C56_34
REMARK   18  A    between atoms: O6_48  and  C39_49
REMARK   19  A    between atoms: C39_49  and  C43_50
REMARK   20  A    between atoms: O3_52  and  C37_53
REMARK   21  A    between atoms: C37_53  and  C41_55
REMARK   22  A    between atoms: O2_61  and  C36_62
REMARK   23  A    between atoms: C36_62  and  C38_64
REMARK                            x       y       z     vdW  Elec       q    Type
REMARK                         _______ _______ _______ _____ _____    ______ ____
ROOT
ATOM      1  O1  UNK     0      -5.996   2.261  -0.797  0.00  0.00    +0.000 OA
ATOM      2  O7  UNK     0      -0.325   1.839  -1.975  0.00  0.00    +0.000 OA
ATOM      3  C16 UNK     0      -2.946   0.858  -0.710  0.00  0.00    +0.000 C 
ATOM      4  C17 UNK     0      -4.204   1.475   0.032  0.00  0.00    +0.000 C 
ATOM      5  C18 UNK     0      -2.667   1.518  -2.126  0.00  0.00    +0.000 C 
ATOM      6  C19 UNK     0      -4.768   2.833  -0.390  0.00  0.00    +0.000 C 
ATOM      7  C20 UNK     0      -2.942  -0.749  -0.571  0.00  0.00    +0.000 C 
ATOM      8  C21 UNK     0      -1.604  -1.670  -0.616  0.00  0.00    +0.000 C 
ATOM      9  C22 UNK     0      -2.732   3.078  -1.942  0.00  0.00    +0.000 C 
ATOM     10  C23 UNK     0      -4.113   3.603  -1.547  0.00  0.00    +0.000 C 
ATOM     11  C24 UNK     0      -1.142  -2.127  -2.070  0.00  0.00    +0.000 C 
ATOM     12  C25 UNK     0      -5.559   0.967  -0.445  0.00  0.00    +0.000 C 
ATOM     13  C26 UNK     0      -1.212   1.208  -2.544  0.00  0.00    +0.000 C 
ATOM     14  C27 UNK     0      -0.394  -1.001   0.170  0.00  0.00    +0.000 C 
ATOM     15  C28 UNK     0      -0.214  -1.044  -2.654  0.00  0.00    +0.000 C 
ATOM     16  C29 UNK     0      -3.705   1.140  -3.227  0.00  0.00    +0.000 C 
ATOM     17  C30 UNK     0      -0.721   0.128  -3.501  0.00  0.00    +0.000 C 
ATOM     18  C31 UNK     0       1.014  -1.104  -0.480  0.00  0.00    +0.000 C 
ATOM     19  C32 UNK     0       0.950  -0.825  -1.976  0.00  0.00    +0.000 C 
ATOM     20  C33 UNK     0      -2.327  -2.546  -2.985  0.00  0.00    +0.000 C 
ATOM     21  C34 UNK     0      -0.313  -3.470  -2.006  0.00  0.00    +0.000 C 
ATOM     22  C35 UNK     0       2.137  -0.157  -2.637  0.00  0.00    +0.000 C 
ENDROOT
BRANCH   8  23
ATOM     23  O4  UNK     0      -1.929  -2.890   0.039  0.00  0.00    +0.000 OA
ATOM     24  H84 UNK     0      -1.948  -2.763   1.024  0.00  0.00    +0.000 HD
ENDBRANCH   8  23
BRANCH   9  25
ATOM     25  O5  UNK     0      -2.316   3.722  -3.123  0.00  0.00    +0.000 OA
ATOM     26  H85 UNK     0      -2.044   4.644  -2.872  0.00  0.00    +0.000 HD
ENDBRANCH   9  25
BRANCH  18  27
ATOM     27  O8  UNK     0       1.877  -0.140   0.132  0.00  0.00    +0.000 OA
BRANCH  27  28
ATOM     28  C40 UNK     0       2.384  -0.262   1.430  0.00  0.00    +0.000 C 
ATOM     29  O12 UNK     0       2.051  -1.231   2.162  0.00  0.00    +0.000 OA
BRANCH  28  30
ATOM     30  C42 UNK     0       3.395   0.733   1.928  0.00  0.00    +0.000 C 
BRANCH  30  31
ATOM     31  O13 UNK     0       2.922   2.039   1.713  0.00  0.00    +0.000 OA
ATOM     32 1H10 UNK     0       2.944   2.214   0.737  0.00  0.00    +0.000 HD
ENDBRANCH  30  31
BRANCH  30  33
ATOM     33  C46 UNK     0       4.775   0.511   1.254  0.00  0.00    +0.000 C 
BRANCH  33  34
ATOM     34  C50 UNK     0       5.300  -0.882   1.549  0.00  0.00    +0.000 A 
ATOM     35  C52 UNK     0       5.802  -1.210   2.823  0.00  0.00    +0.000 A 
ATOM     36  C55 UNK     0       6.205  -2.519   3.105  0.00  0.00    +0.000 A 
ATOM     37  C57 UNK     0       6.093  -3.512   2.130  0.00  0.00    +0.000 A 
ATOM     38  C54 UNK     0       5.581  -3.200   0.868  0.00  0.00    +0.000 A 
ATOM     39  C51 UNK     0       5.184  -1.892   0.578  0.00  0.00    +0.000 A 
ENDBRANCH  33  34
BRANCH  33  40
ATOM     40  N15 UNK     0       5.740   1.520   1.709  0.00  0.00    +0.000 N 
ATOM     41 3H10 UNK     0       5.480   2.135   2.512  0.00  0.00    +0.000 HD
ATOM     42  C53 UNK     0       6.978   1.759   1.017  0.00  0.00    +0.000 C 
ATOM     43  O14 UNK     0       7.214   1.155  -0.065  0.00  0.00    +0.000 OA
BRANCH  42  44
ATOM     44  C56 UNK     0       7.966   2.735   1.537  0.00  0.00    +0.000 A 
ATOM     45  C59 UNK     0       8.857   3.369   0.653  0.00  0.00    +0.000 A 
ATOM     46  C61 UNK     0       9.781   4.305   1.126  0.00  0.00    +0.000 A 
ATOM     47  C62 UNK     0       9.832   4.614   2.488  0.00  0.00    +0.000 A 
ATOM     48  C60 UNK     0       8.961   3.982   3.378  0.00  0.00    +0.000 A 
ATOM     49  C58 UNK     0       8.034   3.045   2.909  0.00  0.00    +0.000 A 
ENDBRANCH  42  44
ENDBRANCH  33  40
ENDBRANCH  30  33
ENDBRANCH  28  30
ENDBRANCH  27  28
ENDBRANCH  18  27
BRANCH  17  50
ATOM     50  O6  UNK     0      -1.669  -0.238  -4.496  0.00  0.00    +0.000 OA
BRANCH  50  51
ATOM     51  C39 UNK     0      -1.344  -0.960  -5.648  0.00  0.00    +0.000 C 
ATOM     52  C43 UNK     0      -2.429  -1.310  -6.606  0.00  0.00    +0.000 C 
ATOM     53  O11 UNK     0      -0.153  -1.302  -5.885  0.00  0.00    +0.000 OA
ENDBRANCH  50  51
ENDBRANCH  17  50
BRANCH   7  54
ATOM     54  O3  UNK     0      -3.577  -1.047   0.682  0.00  0.00    +0.000 OA
BRANCH  54  55
ATOM     55  C37 UNK     0      -4.597  -1.992   0.872  0.00  0.00    +0.000 C 
ATOM     56  O10 UNK     0      -5.172  -2.524  -0.119  0.00  0.00    +0.000 OA
BRANCH  55  57
ATOM     57  C41 UNK     0      -4.986  -2.367   2.246  0.00  0.00    +0.000 A 
ATOM     58  C45 UNK     0      -4.201  -1.950   3.337  0.00  0.00    +0.000 A 
ATOM     59  C48 UNK     0      -4.555  -2.313   4.639  0.00  0.00    +0.000 A 
ATOM     60  C49 UNK     0      -5.694  -3.089   4.865  0.00  0.00    +0.000 A 
ATOM     61  C47 UNK     0      -6.480  -3.510   3.789  0.00  0.00    +0.000 A 
ATOM     62  C44 UNK     0      -6.129  -3.154   2.483  0.00  0.00    +0.000 A 
ENDBRANCH  55  57
ENDBRANCH  54  55
ENDBRANCH   7  54
BRANCH   4  63
ATOM     63  O2  UNK     0      -4.026   1.390   1.465  0.00  0.00    +0.000 OA
BRANCH  63  64
ATOM     64  C36 UNK     0      -4.951   1.712   2.475  0.00  0.00    +0.000 C 
ATOM     65  O9  UNK     0      -6.107   2.142   2.206  0.00  0.00    +0.000 OA
ATOM     66  C38 UNK     0      -4.554   1.537   3.901  0.00  0.00    +0.000 C 
ENDBRANCH  63  64
ENDBRANCH   4  63
TORSDOF 17
