REMARK  Name = C:\Users\Maximilian\Desktop\Conformers\converted_pdb\conformers_pdb\Paclitaxel_conf_4.pdb
REMARK  23 active torsions:
REMARK  status: ('A' for Active; 'I' for Inactive)
REMARK    1  A    between atoms: C17_4  and  O2_61
REMARK    2  A    between atoms: C18_5  and  C29_16
REMARK    3  A    between atoms: C20_7  and  O3_52
REMARK    4  A    between atoms: C21_8  and  O4_46
REMARK    5  A    between atoms: C22_9  and  O5_65
REMARK    6  A    between atoms: C24_11  and  C33_20
REMARK    7  A    between atoms: C24_11  and  C34_21
REMARK    8  A    between atoms: C30_17  and  O6_48
REMARK    9  A    between atoms: C31_18  and  O8_23
REMARK   10  A    between atoms: C32_19  and  C35_22
REMARK   11  A    between atoms: O8_23  and  C40_24
REMARK   12  A    between atoms: C40_24  and  C42_26
REMARK   13  A    between atoms: C42_26  and  O13_27
REMARK   14  A    between atoms: C42_26  and  C46_29
REMARK   15  A    between atoms: C46_29  and  N15_30
REMARK   16  A    between atoms: C46_29  and  C50_40
REMARK   17  A    between atoms: C53_32  and  C56_34
REMARK   18  A    between atoms: O6_48  and  C39_49
REMARK   19  A    between atoms: C39_49  and  C43_50
REMARK   20  A    between atoms: O3_52  and  C37_53
REMARK   21  A    between atoms: C37_53  and  C41_55
REMARK   22  A    between atoms: O2_61  and  C36_62
REMARK   23  A    between atoms: C36_62  and  C38_64
REMARK                            x       y       z     vdW  Elec       q    Type
REMARK                         _______ _______ _______ _____ _____    ______ ____
ROOT
ATOM      1  O1  UNK     0      -5.330   3.062   1.403  0.00  0.00    +0.000 OA
ATOM      2  O7  UNK     0      -0.455   2.774  -0.596  0.00  0.00    +0.000 OA
ATOM      3  C16 UNK     0      -2.935   1.248   0.209  0.00  0.00    +0.000 C 
ATOM      4  C17 UNK     0      -3.981   1.425   1.402  0.00  0.00    +0.000 C 
ATOM      5  C18 UNK     0      -2.802   2.542  -0.763  0.00  0.00    +0.000 C 
ATOM      6  C19 UNK     0      -4.060   2.816   1.986  0.00  0.00    +0.000 C 
ATOM      7  C20 UNK     0      -3.058  -0.206  -0.488  0.00  0.00    +0.000 C 
ATOM      8  C21 UNK     0      -1.788  -1.053  -1.049  0.00  0.00    +0.000 C 
ATOM      9  C22 UNK     0      -2.880   3.933   0.042  0.00  0.00    +0.000 C 
ATOM     10  C23 UNK     0      -2.943   3.762   1.556  0.00  0.00    +0.000 C 
ATOM     11  C24 UNK     0      -1.360  -0.732  -2.542  0.00  0.00    +0.000 C 
ATOM     12  C25 UNK     0      -5.410   1.718   0.969  0.00  0.00    +0.000 C 
ATOM     13  C26 UNK     0      -1.377   2.489  -1.357  0.00  0.00    +0.000 C 
ATOM     14  C27 UNK     0      -0.515  -0.980  -0.083  0.00  0.00    +0.000 C 
ATOM     15  C28 UNK     0      -0.453   0.517  -2.523  0.00  0.00    +0.000 C 
ATOM     16  C29 UNK     0      -3.888   2.643  -1.883  0.00  0.00    +0.000 C 
ATOM     17  C30 UNK     0      -0.956   1.951  -2.722  0.00  0.00    +0.000 C 
ATOM     18  C31 UNK     0       0.862  -0.626  -0.735  0.00  0.00    +0.000 C 
ATOM     19  C32 UNK     0       0.723   0.395  -1.845  0.00  0.00    +0.000 C 
ATOM     20  C33 UNK     0      -2.564  -0.663  -3.525  0.00  0.00    +0.000 C 
ATOM     21  C34 UNK     0      -0.518  -1.930  -3.150  0.00  0.00    +0.000 C 
ATOM     22  C35 UNK     0       1.918   1.272  -2.168  0.00  0.00    +0.000 C 
ENDROOT
BRANCH   8  23
ATOM     23  O4  UNK     0      -2.213  -2.408  -1.108  0.00  0.00    +0.000 OA
ATOM     24  H84 UNK     0      -2.205  -2.819  -0.203  0.00  0.00    +0.000 HD
ENDBRANCH   8  23
BRANCH   9  25
ATOM     25  O5  UNK     0      -3.959   4.757  -0.358  0.00  0.00    +0.000 OA
ATOM     26  H85 UNK     0      -3.753   5.693  -0.080  0.00  0.00    +0.000 HD
ENDBRANCH   9  25
BRANCH  18  27
ATOM     27  O8  UNK     0       1.749  -0.099   0.259  0.00  0.00    +0.000 OA
BRANCH  27  28
ATOM     28  C40 UNK     0       2.422  -0.888   1.204  0.00  0.00    +0.000 C 
ATOM     29  O12 UNK     0       2.057  -2.073   1.436  0.00  0.00    +0.000 OA
BRANCH  28  30
ATOM     30  C42 UNK     0       3.619  -0.316   1.917  0.00  0.00    +0.000 C 
BRANCH  30  31
ATOM     31  O13 UNK     0       3.326   0.991   2.347  0.00  0.00    +0.000 OA
ATOM     32 1H10 UNK     0       2.745   0.900   3.148  0.00  0.00    +0.000 HD
ENDBRANCH  30  31
BRANCH  30  33
ATOM     33  C46 UNK     0       4.832  -0.277   0.962  0.00  0.00    +0.000 C 
BRANCH  33  34
ATOM     34  C50 UNK     0       5.203  -1.679   0.504  0.00  0.00    +0.000 A 
ATOM     35  C52 UNK     0       5.925  -2.548   1.349  0.00  0.00    +0.000 A 
ATOM     36  C55 UNK     0       6.219  -3.850   0.931  0.00  0.00    +0.000 A 
ATOM     37  C57 UNK     0       5.775  -4.303  -0.315  0.00  0.00    +0.000 A 
ATOM     38  C54 UNK     0       5.056  -3.451  -1.156  0.00  0.00    +0.000 A 
ATOM     39  C51 UNK     0       4.777  -2.141  -0.751  0.00  0.00    +0.000 A 
ENDBRANCH  33  34
BRANCH  33  40
ATOM     40  N15 UNK     0       5.981   0.366   1.614  0.00  0.00    +0.000 N 
ATOM     41 3H10 UNK     0       5.967   0.488   2.647  0.00  0.00    +0.000 HD
ATOM     42  C53 UNK     0       7.086   0.907   0.866  0.00  0.00    +0.000 C 
ATOM     43  O14 UNK     0       7.084   0.835  -0.395  0.00  0.00    +0.000 OA
BRANCH  42  44
ATOM     44  C56 UNK     0       8.215   1.583   1.552  0.00  0.00    +0.000 A 
ATOM     45  C59 UNK     0       8.949   2.574   0.877  0.00  0.00    +0.000 A 
ATOM     46  C61 UNK     0       9.994   3.243   1.516  0.00  0.00    +0.000 A 
ATOM     47  C62 UNK     0      10.334   2.913   2.833  0.00  0.00    +0.000 A 
ATOM     48  C60 UNK     0       9.623   1.923   3.509  0.00  0.00    +0.000 A 
ATOM     49  C58 UNK     0       8.581   1.249   2.872  0.00  0.00    +0.000 A 
ENDBRANCH  42  44
ENDBRANCH  33  40
ENDBRANCH  30  33
ENDBRANCH  28  30
ENDBRANCH  27  28
ENDBRANCH  18  27
BRANCH  17  50
ATOM     50  O6  UNK     0      -1.939   2.087  -3.743  0.00  0.00    +0.000 OA
BRANCH  50  51
ATOM     51  C39 UNK     0      -1.653   1.976  -5.101  0.00  0.00    +0.000 C 
ATOM     52  C43 UNK     0      -2.737   2.207  -6.099  0.00  0.00    +0.000 C 
ATOM     53  O11 UNK     0      -0.500   1.655  -5.492  0.00  0.00    +0.000 OA
ENDBRANCH  50  51
ENDBRANCH  17  50
BRANCH   7  54
ATOM     54  O3  UNK     0      -3.724  -1.083   0.431  0.00  0.00    +0.000 OA
BRANCH  54  55
ATOM     55  C37 UNK     0      -4.842  -1.881   0.121  0.00  0.00    +0.000 C 
ATOM     56  O10 UNK     0      -5.634  -1.542  -0.800  0.00  0.00    +0.000 OA
BRANCH  55  57
ATOM     57  C41 UNK     0      -5.050  -3.155   0.849  0.00  0.00    +0.000 A 
ATOM     58  C45 UNK     0      -4.106  -3.583   1.809  0.00  0.00    +0.000 A 
ATOM     59  C48 UNK     0      -4.236  -4.831   2.429  0.00  0.00    +0.000 A 
ATOM     60  C49 UNK     0      -5.328  -5.649   2.119  0.00  0.00    +0.000 A 
ATOM     61  C47 UNK     0      -6.272  -5.243   1.174  0.00  0.00    +0.000 A 
ATOM     62  C44 UNK     0      -6.125  -4.007   0.538  0.00  0.00    +0.000 A 
ENDBRANCH  55  57
ENDBRANCH  54  55
ENDBRANCH   7  54
BRANCH   4  63
ATOM     63  O2  UNK     0      -3.859   0.414   2.433  0.00  0.00    +0.000 OA
BRANCH  63  64
ATOM     64  C36 UNK     0      -4.715   0.187   3.528  0.00  0.00    +0.000 C 
ATOM     65  O9  UNK     0      -5.562   1.054   3.893  0.00  0.00    +0.000 OA
ATOM     66  C38 UNK     0      -4.710  -1.136   4.222  0.00  0.00    +0.000 C 
ENDBRANCH  63  64
ENDBRANCH   4  63
TORSDOF 17
