REMARK  Name = C:\Users\Maximilian\Desktop\Conformers\converted_pdb\conformers_pdb\Paclitaxel_conf_14.pdb
REMARK  23 active torsions:
REMARK  status: ('A' for Active; 'I' for Inactive)
REMARK    1  A    between atoms: C17_4  and  O2_61
REMARK    2  A    between atoms: C18_5  and  C29_16
REMARK    3  A    between atoms: C20_7  and  O3_52
REMARK    4  A    between atoms: C21_8  and  O4_46
REMARK    5  A    between atoms: C22_9  and  O5_65
REMARK    6  A    between atoms: C24_11  and  C33_20
REMARK    7  A    between atoms: C24_11  and  C34_21
REMARK    8  A    between atoms: C30_17  and  O6_48
REMARK    9  A    between atoms: C31_18  and  O8_23
REMARK   10  A    between atoms: C32_19  and  C35_22
REMARK   11  A    between atoms: O8_23  and  C40_24
REMARK   12  A    between atoms: C40_24  and  C42_26
REMARK   13  A    between atoms: C42_26  and  O13_27
REMARK   14  A    between atoms: C42_26  and  C46_29
REMARK   15  A    between atoms: C46_29  and  N15_30
REMARK   16  A    between atoms: C46_29  and  C50_40
REMARK   17  A    between atoms: C53_32  and  C56_34
REMARK   18  A    between atoms: O6_48  and  C39_49
REMARK   19  A    between atoms: C39_49  and  C43_50
REMARK   20  A    between atoms: O3_52  and  C37_53
REMARK   21  A    between atoms: C37_53  and  C41_55
REMARK   22  A    between atoms: O2_61  and  C36_62
REMARK   23  A    between atoms: C36_62  and  C38_64
REMARK                            x       y       z     vdW  Elec       q    Type
REMARK                         _______ _______ _______ _____ _____    ______ ____
ROOT
ATOM      1  O1  UNK     0      -4.151  -2.024   2.364  0.00  0.00    +0.000 OA
ATOM      2  O7  UNK     0      -4.978   3.741   0.341  0.00  0.00    +0.000 OA
ATOM      3  C16 UNK     0      -2.979   0.641   0.565  0.00  0.00    +0.000 C 
ATOM      4  C17 UNK     0      -2.764  -0.619   1.526  0.00  0.00    +0.000 C 
ATOM      5  C18 UNK     0      -4.199   1.583   0.991  0.00  0.00    +0.000 C 
ATOM      6  C19 UNK     0      -3.639  -0.785   2.782  0.00  0.00    +0.000 C 
ATOM      7  C20 UNK     0      -2.866   0.379  -1.022  0.00  0.00    +0.000 C 
ATOM      8  C21 UNK     0      -1.875   1.253  -1.938  0.00  0.00    +0.000 C 
ATOM      9  C22 UNK     0      -4.349   1.595   2.544  0.00  0.00    +0.000 C 
ATOM     10  C23 UNK     0      -4.740   0.218   3.066  0.00  0.00    +0.000 C 
ATOM     11  C24 UNK     0      -2.069   2.827  -1.854  0.00  0.00    +0.000 C 
ATOM     12  C25 UNK     0      -3.401  -1.970   1.177  0.00  0.00    +0.000 C 
ATOM     13  C26 UNK     0      -3.991   3.059   0.586  0.00  0.00    +0.000 C 
ATOM     14  C27 UNK     0      -0.384   0.865  -1.603  0.00  0.00    +0.000 C 
ATOM     15  C28 UNK     0      -1.639   3.212  -0.420  0.00  0.00    +0.000 C 
ATOM     16  C29 UNK     0      -5.541   1.070   0.365  0.00  0.00    +0.000 C 
ATOM     17  C30 UNK     0      -2.638   3.760   0.611  0.00  0.00    +0.000 C 
ATOM     18  C31 UNK     0       0.484   1.945  -0.892  0.00  0.00    +0.000 C 
ATOM     19  C32 UNK     0      -0.368   2.859  -0.015  0.00  0.00    +0.000 C 
ATOM     20  C33 UNK     0      -3.514   3.252  -2.263  0.00  0.00    +0.000 C 
ATOM     21  C34 UNK     0      -1.158   3.625  -2.863  0.00  0.00    +0.000 C 
ATOM     22  C35 UNK     0       0.232   3.372   1.279  0.00  0.00    +0.000 C 
ENDROOT
BRANCH   8  23
ATOM     23  O4  UNK     0      -2.157   0.845  -3.265  0.00  0.00    +0.000 OA
ATOM     24  H84 UNK     0      -1.531   1.285  -3.896  0.00  0.00    +0.000 HD
ENDBRANCH   8  23
BRANCH   9  25
ATOM     25  O5  UNK     0      -5.324   2.527   2.937  0.00  0.00    +0.000 OA
ATOM     26  H85 UNK     0      -5.198   2.690   3.909  0.00  0.00    +0.000 HD
ENDBRANCH   9  25
BRANCH  18  27
ATOM     27  O8  UNK     0       1.547   1.314  -0.160  0.00  0.00    +0.000 OA
BRANCH  27  28
ATOM     28  C40 UNK     0       2.599   0.641  -0.804  0.00  0.00    +0.000 C 
ATOM     29  O12 UNK     0       2.511   0.348  -2.028  0.00  0.00    +0.000 OA
BRANCH  28  30
ATOM     30  C42 UNK     0       3.908   0.418  -0.088  0.00  0.00    +0.000 C 
BRANCH  30  31
ATOM     31  O13 UNK     0       4.780   1.468  -0.436  0.00  0.00    +0.000 OA
ATOM     32 1H10 UNK     0       4.521   2.259   0.101  0.00  0.00    +0.000 HD
ENDBRANCH  30  31
BRANCH  30  33
ATOM     33  C46 UNK     0       4.574  -0.932  -0.493  0.00  0.00    +0.000 C 
BRANCH  33  34
ATOM     34  C50 UNK     0       3.802  -2.134   0.025  0.00  0.00    +0.000 A 
ATOM     35  C52 UNK     0       2.981  -2.869  -0.845  0.00  0.00    +0.000 A 
ATOM     36  C55 UNK     0       2.340  -4.026  -0.400  0.00  0.00    +0.000 A 
ATOM     37  C57 UNK     0       2.515  -4.458   0.919  0.00  0.00    +0.000 A 
ATOM     38  C54 UNK     0       3.320  -3.733   1.795  0.00  0.00    +0.000 A 
ATOM     39  C51 UNK     0       3.955  -2.568   1.358  0.00  0.00    +0.000 A 
ENDBRANCH  33  34
BRANCH  33  40
ATOM     40  N15 UNK     0       5.960  -0.999  -0.010  0.00  0.00    +0.000 N 
ATOM     41 3H10 UNK     0       6.302  -0.288   0.677  0.00  0.00    +0.000 HD
ATOM     42  C53 UNK     0       6.872  -2.005  -0.470  0.00  0.00    +0.000 C 
ATOM     43  O14 UNK     0       6.498  -2.855  -1.320  0.00  0.00    +0.000 OA
BRANCH  42  44
ATOM     44  C56 UNK     0       8.250  -2.072   0.047  0.00  0.00    +0.000 A 
ATOM     45  C59 UNK     0       8.527  -1.774   1.393  0.00  0.00    +0.000 A 
ATOM     46  C61 UNK     0       9.839  -1.847   1.874  0.00  0.00    +0.000 A 
ATOM     47  C62 UNK     0      10.878  -2.219   1.020  0.00  0.00    +0.000 A 
ATOM     48  C60 UNK     0      10.614  -2.507  -0.324  0.00  0.00    +0.000 A 
ATOM     49  C58 UNK     0       9.305  -2.442  -0.806  0.00  0.00    +0.000 A 
ENDBRANCH  42  44
ENDBRANCH  33  40
ENDBRANCH  30  33
ENDBRANCH  28  30
ENDBRANCH  27  28
ENDBRANCH  18  27
BRANCH  17  50
ATOM     50  O6  UNK     0      -2.774   5.169   0.412  0.00  0.00    +0.000 OA
BRANCH  50  51
ATOM     51  C39 UNK     0      -3.247   6.039   1.407  0.00  0.00    +0.000 C 
ATOM     52  C43 UNK     0      -3.307   7.505   1.134  0.00  0.00    +0.000 C 
ATOM     53  O11 UNK     0      -3.572   5.604   2.547  0.00  0.00    +0.000 OA
ENDBRANCH  50  51
ENDBRANCH  17  50
BRANCH   7  54
ATOM     54  O3  UNK     0      -2.617  -1.010  -1.302  0.00  0.00    +0.000 OA
BRANCH  54  55
ATOM     55  C37 UNK     0      -3.312  -1.744  -2.286  0.00  0.00    +0.000 C 
ATOM     56  O10 UNK     0      -4.148  -1.168  -3.040  0.00  0.00    +0.000 OA
BRANCH  55  57
ATOM     57  C41 UNK     0      -3.127  -3.203  -2.402  0.00  0.00    +0.000 A 
ATOM     58  C45 UNK     0      -1.986  -3.830  -1.870  0.00  0.00    +0.000 A 
ATOM     59  C48 UNK     0      -1.836  -5.219  -1.946  0.00  0.00    +0.000 A 
ATOM     60  C49 UNK     0      -2.818  -5.995  -2.565  0.00  0.00    +0.000 A 
ATOM     61  C47 UNK     0      -3.948  -5.382  -3.113  0.00  0.00    +0.000 A 
ATOM     62  C44 UNK     0      -4.105  -3.995  -3.030  0.00  0.00    +0.000 A 
ENDBRANCH  55  57
ENDBRANCH  54  55
ENDBRANCH   7  54
BRANCH   4  63
ATOM     63  O2  UNK     0      -1.428  -0.670   2.036  0.00  0.00    +0.000 OA
BRANCH  63  64
ATOM     64  C36 UNK     0      -0.304  -1.287   1.500  0.00  0.00    +0.000 C 
ATOM     65  O9  UNK     0      -0.379  -2.010   0.476  0.00  0.00    +0.000 OA
ATOM     66  C38 UNK     0       0.977  -1.180   2.255  0.00  0.00    +0.000 C 
ENDBRANCH  63  64
ENDBRANCH   4  63
TORSDOF 17
