REMARK  Name = C:\Users\Maximilian\Desktop\Conformers\converted_pdb\conformers_pdb\Paclitaxel_conf_24.pdb
REMARK  23 active torsions:
REMARK  status: ('A' for Active; 'I' for Inactive)
REMARK    1  A    between atoms: C17_4  and  O2_61
REMARK    2  A    between atoms: C18_5  and  C29_16
REMARK    3  A    between atoms: C20_7  and  O3_52
REMARK    4  A    between atoms: C21_8  and  O4_46
REMARK    5  A    between atoms: C22_9  and  O5_65
REMARK    6  A    between atoms: C24_11  and  C33_20
REMARK    7  A    between atoms: C24_11  and  C34_21
REMARK    8  A    between atoms: C30_17  and  O6_48
REMARK    9  A    between atoms: C31_18  and  O8_23
REMARK   10  A    between atoms: C32_19  and  C35_22
REMARK   11  A    between atoms: O8_23  and  C40_24
REMARK   12  A    between atoms: C40_24  and  C42_26
REMARK   13  A    between atoms: C42_26  and  O13_27
REMARK   14  A    between atoms: C42_26  and  C46_29
REMARK   15  A    between atoms: C46_29  and  N15_30
REMARK   16  A    between atoms: C46_29  and  C50_40
REMARK   17  A    between atoms: C53_32  and  C56_34
REMARK   18  A    between atoms: O6_48  and  C39_49
REMARK   19  A    between atoms: C39_49  and  C43_50
REMARK   20  A    between atoms: O3_52  and  C37_53
REMARK   21  A    between atoms: C37_53  and  C41_55
REMARK   22  A    between atoms: O2_61  and  C36_62
REMARK   23  A    between atoms: C36_62  and  C38_64
REMARK                            x       y       z     vdW  Elec       q    Type
REMARK                         _______ _______ _______ _____ _____    ______ ____
ROOT
ATOM      1  O1  UNK     0      -5.401   1.838  -0.652  0.00  0.00    +0.000 OA
ATOM      2  O7  UNK     0      -3.670  -3.540  -2.362  0.00  0.00    +0.000 OA
ATOM      3  C16 UNK     0      -2.943  -0.454  -0.480  0.00  0.00    +0.000 C 
ATOM      4  C17 UNK     0      -3.455   1.032  -0.302  0.00  0.00    +0.000 C 
ATOM      5  C18 UNK     0      -3.675  -1.269  -1.647  0.00  0.00    +0.000 C 
ATOM      6  C19 UNK     0      -4.244   1.687  -1.447  0.00  0.00    +0.000 C 
ATOM      7  C20 UNK     0      -2.727  -1.209   0.908  0.00  0.00    +0.000 C 
ATOM      8  C21 UNK     0      -1.291  -1.838   1.221  0.00  0.00    +0.000 C 
ATOM      9  C22 UNK     0      -3.694  -0.356  -2.908  0.00  0.00    +0.000 C 
ATOM     10  C23 UNK     0      -4.571   0.883  -2.722  0.00  0.00    +0.000 C 
ATOM     11  C24 UNK     0      -0.885  -3.000   0.230  0.00  0.00    +0.000 C 
ATOM     12  C25 UNK     0      -4.765   1.232   0.455  0.00  0.00    +0.000 C 
ATOM     13  C26 UNK     0      -2.966  -2.579  -2.068  0.00  0.00    +0.000 C 
ATOM     14  C27 UNK     0      -0.206  -0.695   1.232  0.00  0.00    +0.000 C 
ATOM     15  C28 UNK     0      -0.646  -2.341  -1.151  0.00  0.00    +0.000 C 
ATOM     16  C29 UNK     0      -5.134  -1.655  -1.240  0.00  0.00    +0.000 C 
ATOM     17  C30 UNK     0      -1.483  -2.739  -2.356  0.00  0.00    +0.000 C 
ATOM     18  C31 UNK     0       0.822  -0.713   0.062  0.00  0.00    +0.000 C 
ATOM     19  C32 UNK     0       0.221  -1.269  -1.221  0.00  0.00    +0.000 C 
ATOM     20  C33 UNK     0      -1.961  -4.143   0.259  0.00  0.00    +0.000 C 
ATOM     21  C34 UNK     0       0.440  -3.725   0.667  0.00  0.00    +0.000 C 
ATOM     22  C35 UNK     0       0.550  -0.565  -2.527  0.00  0.00    +0.000 C 
ENDROOT
BRANCH   8  23
ATOM     23  O4  UNK     0      -1.395  -2.382   2.524  0.00  0.00    +0.000 OA
ATOM     24  H84 UNK     0      -0.486  -2.600   2.857  0.00  0.00    +0.000 HD
ENDBRANCH   8  23
BRANCH   9  25
ATOM     25  O5  UNK     0      -4.148  -1.077  -4.032  0.00  0.00    +0.000 OA
ATOM     26  H85 UNK     0      -3.842  -0.568  -4.834  0.00  0.00    +0.000 HD
ENDBRANCH   9  25
BRANCH  18  27
ATOM     27  O8  UNK     0       1.313   0.620  -0.122  0.00  0.00    +0.000 OA
BRANCH  27  28
ATOM     28  C40 UNK     0       2.580   1.052   0.313  0.00  0.00    +0.000 C 
ATOM     29  O12 UNK     0       3.306   0.299   1.029  0.00  0.00    +0.000 OA
BRANCH  28  30
ATOM     30  C42 UNK     0       3.058   2.434  -0.009  0.00  0.00    +0.000 C 
BRANCH  30  31
ATOM     31  O13 UNK     0       2.033   3.181  -0.614  0.00  0.00    +0.000 OA
ATOM     32 1H10 UNK     0       1.832   2.763  -1.498  0.00  0.00    +0.000 HD
ENDBRANCH  30  31
BRANCH  30  33
ATOM     33  C46 UNK     0       4.349   2.458  -0.864  0.00  0.00    +0.000 C 
BRANCH  33  34
ATOM     34  C50 UNK     0       4.237   1.654  -2.149  0.00  0.00    +0.000 A 
ATOM     35  C52 UNK     0       3.891   2.305  -3.345  0.00  0.00    +0.000 A 
ATOM     36  C55 UNK     0       3.738   1.580  -4.529  0.00  0.00    +0.000 A 
ATOM     37  C57 UNK     0       3.875   0.192  -4.529  0.00  0.00    +0.000 A 
ATOM     38  C54 UNK     0       4.199  -0.468  -3.344  0.00  0.00    +0.000 A 
ATOM     39  C51 UNK     0       4.352   0.247  -2.157  0.00  0.00    +0.000 A 
ENDBRANCH  33  34
BRANCH  33  40
ATOM     40  N15 UNK     0       5.507   2.048  -0.053  0.00  0.00    +0.000 N 
ATOM     41 3H10 UNK     0       5.983   1.138  -0.221  0.00  0.00    +0.000 HD
ATOM     42  C53 UNK     0       6.118   2.946   0.885  0.00  0.00    +0.000 C 
ATOM     43  O14 UNK     0       5.750   4.151   0.956  0.00  0.00    +0.000 OA
BRANCH  42  44
ATOM     44  C56 UNK     0       7.182   2.473   1.781  0.00  0.00    +0.000 A 
ATOM     45  C59 UNK     0       8.452   3.048   1.727  0.00  0.00    +0.000 A 
ATOM     46  C61 UNK     0       9.452   2.630   2.613  0.00  0.00    +0.000 A 
ATOM     47  C62 UNK     0       9.176   1.662   3.575  0.00  0.00    +0.000 A 
ATOM     48  C60 UNK     0       7.905   1.082   3.637  0.00  0.00    +0.000 A 
ATOM     49  C58 UNK     0       6.912   1.480   2.735  0.00  0.00    +0.000 A 
ENDBRANCH  42  44
ENDBRANCH  33  40
ENDBRANCH  30  33
ENDBRANCH  28  30
ENDBRANCH  27  28
ENDBRANCH  18  27
BRANCH  17  50
ATOM     50  O6  UNK     0      -1.183  -4.104  -2.671  0.00  0.00    +0.000 OA
BRANCH  50  51
ATOM     51  C39 UNK     0       0.009  -4.539  -3.239  0.00  0.00    +0.000 C 
ATOM     52  C43 UNK     0       0.347  -5.984  -3.172  0.00  0.00    +0.000 C 
ATOM     53  O11 UNK     0       0.812  -3.722  -3.779  0.00  0.00    +0.000 OA
ENDBRANCH  50  51
ENDBRANCH  17  50
BRANCH   7  54
ATOM     54  O3  UNK     0      -3.039  -0.315   1.981  0.00  0.00    +0.000 OA
BRANCH  54  55
ATOM     55  C37 UNK     0      -3.752  -0.667   3.137  0.00  0.00    +0.000 C 
ATOM     56  O10 UNK     0      -4.067  -1.868   3.353  0.00  0.00    +0.000 OA
BRANCH  55  57
ATOM     57  C41 UNK     0      -4.166   0.395   4.080  0.00  0.00    +0.000 A 
ATOM     58  C45 UNK     0      -5.091   0.134   5.102  0.00  0.00    +0.000 A 
ATOM     59  C48 UNK     0      -5.521   1.159   5.947  0.00  0.00    +0.000 A 
ATOM     60  C49 UNK     0      -5.046   2.453   5.774  0.00  0.00    +0.000 A 
ATOM     61  C47 UNK     0      -4.106   2.725   4.772  0.00  0.00    +0.000 A 
ATOM     62  C44 UNK     0      -3.667   1.707   3.930  0.00  0.00    +0.000 A 
ENDBRANCH  55  57
ENDBRANCH  54  55
ENDBRANCH   7  54
BRANCH   4  63
ATOM     63  O2  UNK     0      -2.380   1.867   0.195  0.00  0.00    +0.000 OA
BRANCH  63  64
ATOM     64  C36 UNK     0      -2.427   3.233   0.507  0.00  0.00    +0.000 C 
ATOM     65  O9  UNK     0      -3.484   3.908   0.398  0.00  0.00    +0.000 OA
ATOM     66  C38 UNK     0      -1.169   3.906   0.943  0.00  0.00    +0.000 C 
ENDBRANCH  63  64
ENDBRANCH   4  63
TORSDOF 17
