REMARK  Name = C:\Users\Maximilian\Desktop\Conformers\converted_pdb\conformers_pdb\Paclitaxel_conf_82.pdb
REMARK  23 active torsions:
REMARK  status: ('A' for Active; 'I' for Inactive)
REMARK    1  A    between atoms: C17_4  and  O2_61
REMARK    2  A    between atoms: C18_5  and  C29_16
REMARK    3  A    between atoms: C20_7  and  O3_52
REMARK    4  A    between atoms: C21_8  and  O4_46
REMARK    5  A    between atoms: C22_9  and  O5_65
REMARK    6  A    between atoms: C24_11  and  C33_20
REMARK    7  A    between atoms: C24_11  and  C34_21
REMARK    8  A    between atoms: C30_17  and  O6_48
REMARK    9  A    between atoms: C31_18  and  O8_23
REMARK   10  A    between atoms: C32_19  and  C35_22
REMARK   11  A    between atoms: O8_23  and  C40_24
REMARK   12  A    between atoms: C40_24  and  C42_26
REMARK   13  A    between atoms: C42_26  and  O13_27
REMARK   14  A    between atoms: C42_26  and  C46_29
REMARK   15  A    between atoms: C46_29  and  N15_30
REMARK   16  A    between atoms: C46_29  and  C50_40
REMARK   17  A    between atoms: C53_32  and  C56_34
REMARK   18  A    between atoms: O6_48  and  C39_49
REMARK   19  A    between atoms: C39_49  and  C43_50
REMARK   20  A    between atoms: O3_52  and  C37_53
REMARK   21  A    between atoms: C37_53  and  C41_55
REMARK   22  A    between atoms: O2_61  and  C36_62
REMARK   23  A    between atoms: C36_62  and  C38_64
REMARK                            x       y       z     vdW  Elec       q    Type
REMARK                         _______ _______ _______ _____ _____    ______ ____
ROOT
ATOM      1  O1  UNK     0      -3.983   2.050   2.501  0.00  0.00    +0.000 OA
ATOM      2  O7  UNK     0      -4.970  -1.021  -2.215  0.00  0.00    +0.000 OA
ATOM      3  C16 UNK     0      -2.608   0.025   0.358  0.00  0.00    +0.000 C 
ATOM      4  C17 UNK     0      -2.338   1.139   1.456  0.00  0.00    +0.000 C 
ATOM      5  C18 UNK     0      -3.883   0.304  -0.549  0.00  0.00    +0.000 C 
ATOM      6  C19 UNK     0      -3.211   2.421   1.390  0.00  0.00    +0.000 C 
ATOM      7  C20 UNK     0      -2.534  -1.514   0.796  0.00  0.00    +0.000 C 
ATOM      8  C21 UNK     0      -1.386  -2.419   0.123  0.00  0.00    +0.000 C 
ATOM      9  C22 UNK     0      -3.867   1.785  -1.015  0.00  0.00    +0.000 C 
ATOM     10  C23 UNK     0      -4.037   2.759   0.148  0.00  0.00    +0.000 C 
ATOM     11  C24 UNK     0      -1.678  -2.739  -1.404  0.00  0.00    +0.000 C 
ATOM     12  C25 UNK     0      -3.068   1.032   2.812  0.00  0.00    +0.000 C 
ATOM     13  C26 UNK     0      -3.906  -0.544  -1.848  0.00  0.00    +0.000 C 
ATOM     14  C27 UNK     0       0.038  -1.772   0.295  0.00  0.00    +0.000 C 
ATOM     15  C28 UNK     0      -1.518  -1.377  -2.140  0.00  0.00    +0.000 C 
ATOM     16  C29 UNK     0      -5.184   0.024   0.305  0.00  0.00    +0.000 C 
ATOM     17  C30 UNK     0      -2.732  -0.742  -2.817  0.00  0.00    +0.000 C 
ATOM     18  C31 UNK     0       0.698  -1.202  -1.001  0.00  0.00    +0.000 C 
ATOM     19  C32 UNK     0      -0.305  -0.708  -2.039  0.00  0.00    +0.000 C 
ATOM     20  C33 UNK     0      -3.055  -3.475  -1.568  0.00  0.00    +0.000 C 
ATOM     21  C34 UNK     0      -0.659  -3.778  -1.979  0.00  0.00    +0.000 C 
ATOM     22  C35 UNK     0      -0.115   0.600  -2.753  0.00  0.00    +0.000 C 
ENDROOT
BRANCH   8  23
ATOM     23  O4  UNK     0      -1.389  -3.678   0.792  0.00  0.00    +0.000 OA
ATOM     24  H84 UNK     0      -1.033  -3.546   1.709  0.00  0.00    +0.000 HD
ENDBRANCH   8  23
BRANCH   9  25
ATOM     25  O5  UNK     0      -4.820   2.041  -2.010  0.00  0.00    +0.000 OA
ATOM     26  H85 UNK     0      -5.717   2.111  -1.582  0.00  0.00    +0.000 HD
ENDBRANCH   9  25
BRANCH  18  27
ATOM     27  O8  UNK     0       1.641  -0.210  -0.636  0.00  0.00    +0.000 OA
BRANCH  27  28
ATOM     28  C40 UNK     0       2.739  -0.544   0.183  0.00  0.00    +0.000 C 
ATOM     29  O12 UNK     0       2.981  -1.738   0.471  0.00  0.00    +0.000 OA
BRANCH  28  30
ATOM     30  C42 UNK     0       3.603   0.552   0.766  0.00  0.00    +0.000 C 
BRANCH  30  31
ATOM     31  O13 UNK     0       2.857   1.599   1.351  0.00  0.00    +0.000 OA
ATOM     32 1H10 UNK     0       1.887   1.367   1.272  0.00  0.00    +0.000 HD
ENDBRANCH  30  31
BRANCH  30  33
ATOM     33  C46 UNK     0       4.546   1.107  -0.319  0.00  0.00    +0.000 C 
BRANCH  33  34
ATOM     34  C50 UNK     0       5.345  -0.006  -0.972  0.00  0.00    +0.000 A 
ATOM     35  C52 UNK     0       6.523  -0.526  -0.373  0.00  0.00    +0.000 A 
ATOM     36  C55 UNK     0       7.175  -1.620  -0.948  0.00  0.00    +0.000 A 
ATOM     37  C57 UNK     0       6.654  -2.227  -2.101  0.00  0.00    +0.000 A 
ATOM     38  C54 UNK     0       5.504  -1.724  -2.696  0.00  0.00    +0.000 A 
ATOM     39  C51 UNK     0       4.845  -0.623  -2.143  0.00  0.00    +0.000 A 
ENDBRANCH  33  34
BRANCH  33  40
ATOM     40  N15 UNK     0       5.454   2.093   0.250  0.00  0.00    +0.000 N 
ATOM     41 3H10 UNK     0       5.835   1.921   1.222  0.00  0.00    +0.000 HD
ATOM     42  C53 UNK     0       5.982   3.167  -0.527  0.00  0.00    +0.000 C 
ATOM     43  O14 UNK     0       5.576   3.345  -1.710  0.00  0.00    +0.000 OA
BRANCH  42  44
ATOM     44  C56 UNK     0       6.957   4.086   0.082  0.00  0.00    +0.000 A 
ATOM     45  C59 UNK     0       6.855   5.470  -0.115  0.00  0.00    +0.000 A 
ATOM     46  C61 UNK     0       7.701   6.331   0.589  0.00  0.00    +0.000 A 
ATOM     47  C62 UNK     0       8.686   5.819   1.437  0.00  0.00    +0.000 A 
ATOM     48  C60 UNK     0       8.829   4.435   1.591  0.00  0.00    +0.000 A 
ATOM     49  C58 UNK     0       7.986   3.571   0.898  0.00  0.00    +0.000 A 
ENDBRANCH  42  44
ENDBRANCH  33  40
ENDBRANCH  30  33
ENDBRANCH  28  30
ENDBRANCH  27  28
ENDBRANCH  18  27
BRANCH  17  50
ATOM     50  O6  UNK     0      -3.118  -1.593  -3.917  0.00  0.00    +0.000 OA
BRANCH  50  51
ATOM     51  C39 UNK     0      -2.216  -1.969  -4.911  0.00  0.00    +0.000 C 
ATOM     52  C43 UNK     0      -2.300  -3.339  -5.478  0.00  0.00    +0.000 C 
ATOM     53  O11 UNK     0      -1.368  -1.145  -5.358  0.00  0.00    +0.000 OA
ENDBRANCH  50  51
ENDBRANCH  17  50
BRANCH   7  54
ATOM     54  O3  UNK     0      -2.602  -1.723   2.223  0.00  0.00    +0.000 OA
BRANCH  54  55
ATOM     55  C37 UNK     0      -3.529  -2.674   2.716  0.00  0.00    +0.000 C 
ATOM     56  O10 UNK     0      -3.793  -3.703   2.033  0.00  0.00    +0.000 OA
BRANCH  55  57
ATOM     57  C41 UNK     0      -4.256  -2.446   3.970  0.00  0.00    +0.000 A 
ATOM     58  C45 UNK     0      -5.620  -2.799   4.013  0.00  0.00    +0.000 A 
ATOM     59  C48 UNK     0      -6.404  -2.442   5.110  0.00  0.00    +0.000 A 
ATOM     60  C49 UNK     0      -5.827  -1.768   6.184  0.00  0.00    +0.000 A 
ATOM     61  C47 UNK     0      -4.473  -1.409   6.152  0.00  0.00    +0.000 A 
ATOM     62  C44 UNK     0      -3.697  -1.734   5.038  0.00  0.00    +0.000 A 
ENDBRANCH  55  57
ENDBRANCH  54  55
ENDBRANCH   7  54
BRANCH   4  63
ATOM     63  O2  UNK     0      -0.922   1.401   1.591  0.00  0.00    +0.000 OA
BRANCH  63  64
ATOM     64  C36 UNK     0      -0.327   2.637   1.325  0.00  0.00    +0.000 C 
ATOM     65  O9  UNK     0      -0.013   3.386   2.309  0.00  0.00    +0.000 OA
ATOM     66  C38 UNK     0      -0.106   3.074  -0.076  0.00  0.00    +0.000 C 
ENDBRANCH  63  64
ENDBRANCH   4  63
TORSDOF 17
