REMARK  Name = C:\Users\Maximilian\Desktop\Conformers\converted_pdb\conformers_pdb\Paclitaxel_conf_27.pdb
REMARK  23 active torsions:
REMARK  status: ('A' for Active; 'I' for Inactive)
REMARK    1  A    between atoms: C17_4  and  O2_61
REMARK    2  A    between atoms: C18_5  and  C29_16
REMARK    3  A    between atoms: C20_7  and  O3_52
REMARK    4  A    between atoms: C21_8  and  O4_46
REMARK    5  A    between atoms: C22_9  and  O5_65
REMARK    6  A    between atoms: C24_11  and  C33_20
REMARK    7  A    between atoms: C24_11  and  C34_21
REMARK    8  A    between atoms: C30_17  and  O6_48
REMARK    9  A    between atoms: C31_18  and  O8_23
REMARK   10  A    between atoms: C32_19  and  C35_22
REMARK   11  A    between atoms: O8_23  and  C40_24
REMARK   12  A    between atoms: C40_24  and  C42_26
REMARK   13  A    between atoms: C42_26  and  O13_27
REMARK   14  A    between atoms: C42_26  and  C46_29
REMARK   15  A    between atoms: C46_29  and  N15_30
REMARK   16  A    between atoms: C46_29  and  C50_40
REMARK   17  A    between atoms: C53_32  and  C56_34
REMARK   18  A    between atoms: O6_48  and  C39_49
REMARK   19  A    between atoms: C39_49  and  C43_50
REMARK   20  A    between atoms: O3_52  and  C37_53
REMARK   21  A    between atoms: C37_53  and  C41_55
REMARK   22  A    between atoms: O2_61  and  C36_62
REMARK   23  A    between atoms: C36_62  and  C38_64
REMARK                            x       y       z     vdW  Elec       q    Type
REMARK                         _______ _______ _______ _____ _____    ______ ____
ROOT
ATOM      1  O1  UNK     0      -5.152   2.793   2.166  0.00  0.00    +0.000 OA
ATOM      2  O7  UNK     0       0.271   1.576   1.087  0.00  0.00    +0.000 OA
ATOM      3  C16 UNK     0      -2.836   0.898   0.800  0.00  0.00    +0.000 C 
ATOM      4  C17 UNK     0      -4.239   0.943   1.567  0.00  0.00    +0.000 C 
ATOM      5  C18 UNK     0      -1.998   2.274   0.941  0.00  0.00    +0.000 C 
ATOM      6  C19 UNK     0      -4.306   1.855   2.784  0.00  0.00    +0.000 C 
ATOM      7  C20 UNK     0      -2.994   0.104  -0.604  0.00  0.00    +0.000 C 
ATOM      8  C21 UNK     0      -1.741  -0.360  -1.527  0.00  0.00    +0.000 C 
ATOM      9  C22 UNK     0      -1.797   2.552   2.480  0.00  0.00    +0.000 C 
ATOM     10  C23 UNK     0      -3.041   2.459   3.386  0.00  0.00    +0.000 C 
ATOM     11  C24 UNK     0      -1.100   0.730  -2.511  0.00  0.00    +0.000 C 
ATOM     12  C25 UNK     0      -5.311   1.938   1.061  0.00  0.00    +0.000 C 
ATOM     13  C26 UNK     0      -0.554   2.139   0.382  0.00  0.00    +0.000 C 
ATOM     14  C27 UNK     0      -0.659  -1.045  -0.628  0.00  0.00    +0.000 C 
ATOM     15  C28 UNK     0       0.133   1.340  -1.822  0.00  0.00    +0.000 C 
ATOM     16  C29 UNK     0      -2.704   3.541   0.374  0.00  0.00    +0.000 C 
ATOM     17  C30 UNK     0       0.002   2.592  -0.962  0.00  0.00    +0.000 C 
ATOM     18  C31 UNK     0       0.786  -0.965  -1.168  0.00  0.00    +0.000 C 
ATOM     19  C32 UNK     0       1.149   0.482  -1.493  0.00  0.00    +0.000 C 
ATOM     20  C33 UNK     0      -2.157   1.760  -3.005  0.00  0.00    +0.000 C 
ATOM     21  C34 UNK     0      -0.576   0.108  -3.857  0.00  0.00    +0.000 C 
ATOM     22  C35 UNK     0       2.524   0.993  -1.123  0.00  0.00    +0.000 C 
ENDROOT
BRANCH   8  23
ATOM     23  O4  UNK     0      -2.201  -1.400  -2.370  0.00  0.00    +0.000 OA
ATOM     24  H84 UNK     0      -2.864  -1.031  -3.012  0.00  0.00    +0.000 HD
ENDBRANCH   8  23
BRANCH   9  25
ATOM     25  O5  UNK     0      -1.179   3.813   2.663  0.00  0.00    +0.000 OA
ATOM     26  H85 UNK     0      -0.575   3.742   3.450  0.00  0.00    +0.000 HD
ENDBRANCH   9  25
BRANCH  18  27
ATOM     27  O8  UNK     0       1.629  -1.474  -0.133  0.00  0.00    +0.000 OA
BRANCH  27  28
ATOM     28  C40 UNK     0       2.765  -2.265  -0.352  0.00  0.00    +0.000 C 
ATOM     29  O12 UNK     0       3.100  -2.591  -1.527  0.00  0.00    +0.000 OA
BRANCH  28  30
ATOM     30  C42 UNK     0       3.582  -2.760   0.818  0.00  0.00    +0.000 C 
BRANCH  30  31
ATOM     31  O13 UNK     0       3.037  -2.337   2.048  0.00  0.00    +0.000 OA
ATOM     32 1H10 UNK     0       3.025  -1.343   2.063  0.00  0.00    +0.000 HD
ENDBRANCH  30  31
BRANCH  30  33
ATOM     33  C46 UNK     0       5.082  -2.389   0.675  0.00  0.00    +0.000 C 
BRANCH  33  34
ATOM     34  C50 UNK     0       5.911  -2.901   1.838  0.00  0.00    +0.000 A 
ATOM     35  C52 UNK     0       6.453  -4.199   1.775  0.00  0.00    +0.000 A 
ATOM     36  C55 UNK     0       7.210  -4.703   2.834  0.00  0.00    +0.000 A 
ATOM     37  C57 UNK     0       7.422  -3.934   3.977  0.00  0.00    +0.000 A 
ATOM     38  C54 UNK     0       6.856  -2.660   4.069  0.00  0.00    +0.000 A 
ATOM     39  C51 UNK     0       6.095  -2.141   3.013  0.00  0.00    +0.000 A 
ENDBRANCH  33  34
BRANCH  33  40
ATOM     40  N15 UNK     0       5.259  -0.938   0.505  0.00  0.00    +0.000 N 
ATOM     41 3H10 UNK     0       4.703  -0.277   1.102  0.00  0.00    +0.000 HD
ATOM     42  C53 UNK     0       6.142  -0.371  -0.482  0.00  0.00    +0.000 C 
ATOM     43  O14 UNK     0       6.847  -1.138  -1.202  0.00  0.00    +0.000 OA
BRANCH  42  44
ATOM     44  C56 UNK     0       6.202   1.100  -0.724  0.00  0.00    +0.000 A 
ATOM     45  C59 UNK     0       5.848   2.034   0.270  0.00  0.00    +0.000 A 
ATOM     46  C61 UNK     0       5.877   3.404   0.000  0.00  0.00    +0.000 A 
ATOM     47  C62 UNK     0       6.272   3.861  -1.256  0.00  0.00    +0.000 A 
ATOM     48  C60 UNK     0       6.636   2.953  -2.247  0.00  0.00    +0.000 A 
ATOM     49  C58 UNK     0       6.606   1.583  -1.990  0.00  0.00    +0.000 A 
ENDBRANCH  42  44
ENDBRANCH  33  40
ENDBRANCH  30  33
ENDBRANCH  28  30
ENDBRANCH  27  28
ENDBRANCH  18  27
BRANCH  17  50
ATOM     50  O6  UNK     0      -0.732   3.639  -1.593  0.00  0.00    +0.000 OA
BRANCH  50  51
ATOM     51  C39 UNK     0      -0.190   4.471  -2.579  0.00  0.00    +0.000 C 
ATOM     52  C43 UNK     0      -1.000   5.620  -3.070  0.00  0.00    +0.000 C 
ATOM     53  O11 UNK     0       0.972   4.277  -3.033  0.00  0.00    +0.000 OA
ENDBRANCH  50  51
ENDBRANCH  17  50
BRANCH   7  54
ATOM     54  O3  UNK     0      -3.669  -1.117  -0.263  0.00  0.00    +0.000 OA
BRANCH  54  55
ATOM     55  C37 UNK     0      -4.566  -1.834  -1.071  0.00  0.00    +0.000 C 
ATOM     56  O10 UNK     0      -5.178  -1.255  -2.017  0.00  0.00    +0.000 OA
BRANCH  55  57
ATOM     57  C41 UNK     0      -4.787  -3.273  -0.800  0.00  0.00    +0.000 A 
ATOM     58  C45 UNK     0      -4.194  -3.876   0.331  0.00  0.00    +0.000 A 
ATOM     59  C48 UNK     0      -4.401  -5.231   0.604  0.00  0.00    +0.000 A 
ATOM     60  C49 UNK     0      -5.176  -6.007  -0.266  0.00  0.00    +0.000 A 
ATOM     61  C47 UNK     0      -5.754  -5.436  -1.406  0.00  0.00    +0.000 A 
ATOM     62  C44 UNK     0      -5.557  -4.074  -1.677  0.00  0.00    +0.000 A 
ENDBRANCH  55  57
ENDBRANCH  54  55
ENDBRANCH   7  54
BRANCH   4  63
ATOM     63  O2  UNK     0      -4.720  -0.353   1.995  0.00  0.00    +0.000 OA
BRANCH  63  64
ATOM     64  C36 UNK     0      -5.938  -0.980   1.625  0.00  0.00    +0.000 C 
ATOM     65  O9  UNK     0      -6.576  -0.626   0.588  0.00  0.00    +0.000 OA
ATOM     66  C38 UNK     0      -6.454  -2.109   2.458  0.00  0.00    +0.000 C 
ENDBRANCH  63  64
ENDBRANCH   4  63
TORSDOF 17
