REMARK  Name = C:\Users\Maximilian\Desktop\Conformers\converted_pdb\conformers_pdb\Paclitaxel_conf_12.pdb
REMARK  23 active torsions:
REMARK  status: ('A' for Active; 'I' for Inactive)
REMARK    1  A    between atoms: C17_4  and  O2_61
REMARK    2  A    between atoms: C18_5  and  C29_16
REMARK    3  A    between atoms: C20_7  and  O3_52
REMARK    4  A    between atoms: C21_8  and  O4_46
REMARK    5  A    between atoms: C22_9  and  O5_65
REMARK    6  A    between atoms: C24_11  and  C33_20
REMARK    7  A    between atoms: C24_11  and  C34_21
REMARK    8  A    between atoms: C30_17  and  O6_48
REMARK    9  A    between atoms: C31_18  and  O8_23
REMARK   10  A    between atoms: C32_19  and  C35_22
REMARK   11  A    between atoms: O8_23  and  C40_24
REMARK   12  A    between atoms: C40_24  and  C42_26
REMARK   13  A    between atoms: C42_26  and  O13_27
REMARK   14  A    between atoms: C42_26  and  C46_29
REMARK   15  A    between atoms: C46_29  and  N15_30
REMARK   16  A    between atoms: C46_29  and  C50_40
REMARK   17  A    between atoms: C53_32  and  C56_34
REMARK   18  A    between atoms: O6_48  and  C39_49
REMARK   19  A    between atoms: C39_49  and  C43_50
REMARK   20  A    between atoms: O3_52  and  C37_53
REMARK   21  A    between atoms: C37_53  and  C41_55
REMARK   22  A    between atoms: O2_61  and  C36_62
REMARK   23  A    between atoms: C36_62  and  C38_64
REMARK                            x       y       z     vdW  Elec       q    Type
REMARK                         _______ _______ _______ _____ _____    ______ ____
ROOT
ATOM      1  O1  UNK     0      -4.836  -0.198  -2.514  0.00  0.00    +0.000 OA
ATOM      2  O7  UNK     0      -3.222  -3.875   1.670  0.00  0.00    +0.000 OA
ATOM      3  C16 UNK     0      -2.655  -0.768  -0.080  0.00  0.00    +0.000 C 
ATOM      4  C17 UNK     0      -3.122   0.106  -1.303  0.00  0.00    +0.000 C 
ATOM      5  C18 UNK     0      -3.178  -2.272  -0.108  0.00  0.00    +0.000 C 
ATOM      6  C19 UNK     0      -3.492  -0.617  -2.598  0.00  0.00    +0.000 C 
ATOM      7  C20 UNK     0      -2.787  -0.010   1.320  0.00  0.00    +0.000 C 
ATOM      8  C21 UNK     0      -1.462   0.178   2.212  0.00  0.00    +0.000 C 
ATOM      9  C22 UNK     0      -2.783  -2.890  -1.478  0.00  0.00    +0.000 C 
ATOM     10  C23 UNK     0      -3.384  -2.158  -2.694  0.00  0.00    +0.000 C 
ATOM     11  C24 UNK     0      -0.861  -1.164   2.795  0.00  0.00    +0.000 C 
ATOM     12  C25 UNK     0      -4.584   0.526  -1.332  0.00  0.00    +0.000 C 
ATOM     13  C26 UNK     0      -2.512  -3.154   0.987  0.00  0.00    +0.000 C 
ATOM     14  C27 UNK     0      -0.365   0.948   1.389  0.00  0.00    +0.000 C 
ATOM     15  C28 UNK     0      -0.354  -1.966   1.573  0.00  0.00    +0.000 C 
ATOM     16  C29 UNK     0      -4.731  -2.351   0.053  0.00  0.00    +0.000 C 
ATOM     17  C30 UNK     0      -0.999  -3.289   1.176  0.00  0.00    +0.000 C 
ATOM     18  C31 UNK     0       0.887   0.124   0.964  0.00  0.00    +0.000 C 
ATOM     19  C32 UNK     0       0.566  -1.357   0.755  0.00  0.00    +0.000 C 
ATOM     20  C33 UNK     0      -1.890  -1.904   3.702  0.00  0.00    +0.000 C 
ATOM     21  C34 UNK     0       0.359  -0.890   3.759  0.00  0.00    +0.000 C 
ATOM     22  C35 UNK     0       1.231  -2.095  -0.384  0.00  0.00    +0.000 C 
ENDROOT
BRANCH   8  23
ATOM     23  O4  UNK     0      -1.777   1.013   3.311  0.00  0.00    +0.000 OA
ATOM     24  H84 UNK     0      -2.664   0.767   3.683  0.00  0.00    +0.000 HD
ENDBRANCH   8  23
BRANCH   9  25
ATOM     25  O5  UNK     0      -3.177  -4.240  -1.525  0.00  0.00    +0.000 OA
ATOM     26  H85 UNK     0      -2.645  -4.686  -2.236  0.00  0.00    +0.000 HD
ENDBRANCH   9  25
BRANCH  18  27
ATOM     27  O8  UNK     0       1.429   0.718  -0.221  0.00  0.00    +0.000 OA
BRANCH  27  28
ATOM     28  C40 UNK     0       2.770   1.095  -0.391  0.00  0.00    +0.000 C 
ATOM     29  O12 UNK     0       3.604   0.963   0.552  0.00  0.00    +0.000 OA
BRANCH  28  30
ATOM     30  C42 UNK     0       3.197   1.710  -1.703  0.00  0.00    +0.000 C 
BRANCH  30  31
ATOM     31  O13 UNK     0       2.157   1.609  -2.643  0.00  0.00    +0.000 OA
ATOM     32 1H10 UNK     0       1.504   2.318  -2.420  0.00  0.00    +0.000 HD
ENDBRANCH  30  31
BRANCH  30  33
ATOM     33  C46 UNK     0       4.479   1.087  -2.313  0.00  0.00    +0.000 C 
BRANCH  33  34
ATOM     34  C50 UNK     0       4.300  -0.400  -2.608  0.00  0.00    +0.000 A 
ATOM     35  C52 UNK     0       4.557  -1.399  -1.638  0.00  0.00    +0.000 A 
ATOM     36  C55 UNK     0       4.357  -2.750  -1.944  0.00  0.00    +0.000 A 
ATOM     37  C57 UNK     0       3.867  -3.123  -3.200  0.00  0.00    +0.000 A 
ATOM     38  C54 UNK     0       3.617  -2.146  -4.159  0.00  0.00    +0.000 A 
ATOM     39  C51 UNK     0       3.831  -0.795  -3.872  0.00  0.00    +0.000 A 
ENDBRANCH  33  34
BRANCH  33  40
ATOM     40  N15 UNK     0       5.661   1.361  -1.478  0.00  0.00    +0.000 N 
ATOM     41 3H10 UNK     0       6.185   0.574  -1.030  0.00  0.00    +0.000 HD
ATOM     42  C53 UNK     0       6.234   2.669  -1.349  0.00  0.00    +0.000 C 
ATOM     43  O14 UNK     0       5.871   3.593  -2.126  0.00  0.00    +0.000 OA
BRANCH  42  44
ATOM     44  C56 UNK     0       7.292   2.938  -0.346  0.00  0.00    +0.000 A 
ATOM     45  C59 UNK     0       8.237   3.956  -0.574  0.00  0.00    +0.000 A 
ATOM     46  C61 UNK     0       9.255   4.200   0.350  0.00  0.00    +0.000 A 
ATOM     47  C62 UNK     0       9.331   3.442   1.518  0.00  0.00    +0.000 A 
ATOM     48  C60 UNK     0       8.385   2.448   1.774  0.00  0.00    +0.000 A 
ATOM     49  C58 UNK     0       7.371   2.189   0.844  0.00  0.00    +0.000 A 
ENDBRANCH  42  44
ENDBRANCH  33  40
ENDBRANCH  30  33
ENDBRANCH  28  30
ENDBRANCH  27  28
ENDBRANCH  18  27
BRANCH  17  50
ATOM     50  O6  UNK     0      -0.673  -4.260   2.175  0.00  0.00    +0.000 OA
BRANCH  50  51
ATOM     51  C39 UNK     0      -0.856  -5.638   2.014  0.00  0.00    +0.000 C 
ATOM     52  C43 UNK     0      -0.496  -6.565   3.124  0.00  0.00    +0.000 C 
ATOM     53  O11 UNK     0      -1.258  -6.109   0.915  0.00  0.00    +0.000 OA
ENDBRANCH  50  51
ENDBRANCH  17  50
BRANCH   7  54
ATOM     54  O3  UNK     0      -3.364   1.293   1.123  0.00  0.00    +0.000 OA
BRANCH  54  55
ATOM     55  C37 UNK     0      -4.500   1.774   1.792  0.00  0.00    +0.000 C 
ATOM     56  O10 UNK     0      -5.073   1.064   2.666  0.00  0.00    +0.000 OA
BRANCH  55  57
ATOM     57  C41 UNK     0      -5.056   3.090   1.424  0.00  0.00    +0.000 A 
ATOM     58  C45 UNK     0      -4.401   3.890   0.474  0.00  0.00    +0.000 A 
ATOM     59  C48 UNK     0      -4.924   5.142   0.123  0.00  0.00    +0.000 A 
ATOM     60  C49 UNK     0      -6.127   5.582   0.686  0.00  0.00    +0.000 A 
ATOM     61  C47 UNK     0      -6.788   4.788   1.627  0.00  0.00    +0.000 A 
ATOM     62  C44 UNK     0      -6.260   3.546   1.997  0.00  0.00    +0.000 A 
ENDBRANCH  55  57
ENDBRANCH  54  55
ENDBRANCH   7  54
BRANCH   4  63
ATOM     63  O2  UNK     0      -2.207   1.200  -1.519  0.00  0.00    +0.000 OA
BRANCH  63  64
ATOM     64  C36 UNK     0      -2.318   2.247  -2.449  0.00  0.00    +0.000 C 
ATOM     65  O9  UNK     0      -3.256   2.289  -3.298  0.00  0.00    +0.000 OA
ATOM     66  C38 UNK     0      -1.310   3.337  -2.413  0.00  0.00    +0.000 C 
ENDBRANCH  63  64
ENDBRANCH   4  63
TORSDOF 17
