REMARK  Name = C:\Users\Maximilian\Desktop\Conformers\converted_pdb\conformers_pdb\Paclitaxel_conf_16.pdb
REMARK  23 active torsions:
REMARK  status: ('A' for Active; 'I' for Inactive)
REMARK    1  A    between atoms: C17_4  and  O2_61
REMARK    2  A    between atoms: C18_5  and  C29_16
REMARK    3  A    between atoms: C20_7  and  O3_52
REMARK    4  A    between atoms: C21_8  and  O4_46
REMARK    5  A    between atoms: C22_9  and  O5_65
REMARK    6  A    between atoms: C24_11  and  C33_20
REMARK    7  A    between atoms: C24_11  and  C34_21
REMARK    8  A    between atoms: C30_17  and  O6_48
REMARK    9  A    between atoms: C31_18  and  O8_23
REMARK   10  A    between atoms: C32_19  and  C35_22
REMARK   11  A    between atoms: O8_23  and  C40_24
REMARK   12  A    between atoms: C40_24  and  C42_26
REMARK   13  A    between atoms: C42_26  and  O13_27
REMARK   14  A    between atoms: C42_26  and  C46_29
REMARK   15  A    between atoms: C46_29  and  N15_30
REMARK   16  A    between atoms: C46_29  and  C50_40
REMARK   17  A    between atoms: C53_32  and  C56_34
REMARK   18  A    between atoms: O6_48  and  C39_49
REMARK   19  A    between atoms: C39_49  and  C43_50
REMARK   20  A    between atoms: O3_52  and  C37_53
REMARK   21  A    between atoms: C37_53  and  C41_55
REMARK   22  A    between atoms: O2_61  and  C36_62
REMARK   23  A    between atoms: C36_62  and  C38_64
REMARK                            x       y       z     vdW  Elec       q    Type
REMARK                         _______ _______ _______ _____ _____    ______ ____
ROOT
ATOM      1  O1  UNK     0      -4.320  -1.041   2.599  0.00  0.00    +0.000 OA
ATOM      2  O7  UNK     0      -4.974   2.486  -2.065  0.00  0.00    +0.000 OA
ATOM      3  C16 UNK     0      -2.818   0.337  -0.052  0.00  0.00    +0.000 C 
ATOM      4  C17 UNK     0      -2.734  -0.445   1.315  0.00  0.00    +0.000 C 
ATOM      5  C18 UNK     0      -4.068   1.321  -0.173  0.00  0.00    +0.000 C 
ATOM      6  C19 UNK     0      -3.494   0.102   2.530  0.00  0.00    +0.000 C 
ATOM      7  C20 UNK     0      -2.497  -0.583  -1.317  0.00  0.00    +0.000 C 
ATOM      8  C21 UNK     0      -1.296  -0.146  -2.280  0.00  0.00    +0.000 C 
ATOM      9  C22 UNK     0      -4.101   2.199   1.113  0.00  0.00    +0.000 C 
ATOM     10  C23 UNK     0      -4.348   1.378   2.390  0.00  0.00    +0.000 C 
ATOM     11  C24 UNK     0      -1.556   1.202  -3.047  0.00  0.00    +0.000 C 
ATOM     12  C25 UNK     0      -3.678  -1.627   1.488  0.00  0.00    +0.000 C 
ATOM     13  C26 UNK     0      -3.977   2.294  -1.380  0.00  0.00    +0.000 C 
ATOM     14  C27 UNK     0       0.062  -0.063  -1.470  0.00  0.00    +0.000 C 
ATOM     15  C28 UNK     0      -1.531   2.322  -1.986  0.00  0.00    +0.000 C 
ATOM     16  C29 UNK     0      -5.416   0.540  -0.302  0.00  0.00    +0.000 C 
ATOM     17  C30 UNK     0      -2.763   3.163  -1.685  0.00  0.00    +0.000 C 
ATOM     18  C31 UNK     0       0.649   1.357  -1.231  0.00  0.00    +0.000 C 
ATOM     19  C32 UNK     0      -0.411   2.447  -1.207  0.00  0.00    +0.000 C 
ATOM     20  C33 UNK     0      -2.856   1.129  -3.914  0.00  0.00    +0.000 C 
ATOM     21  C34 UNK     0      -0.423   1.487  -4.100  0.00  0.00    +0.000 C 
ATOM     22  C35 UNK     0      -0.174   3.662  -0.328  0.00  0.00    +0.000 C 
ENDROOT
BRANCH   8  23
ATOM     23  O4  UNK     0      -1.168  -1.140  -3.280  0.00  0.00    +0.000 OA
ATOM     24  H84 UNK     0      -0.770  -1.956  -2.880  0.00  0.00    +0.000 HD
ENDBRANCH   8  23
BRANCH   9  25
ATOM     25  O5  UNK     0      -5.088   3.194   0.997  0.00  0.00    +0.000 OA
ATOM     26  H85 UNK     0      -5.005   3.783   1.790  0.00  0.00    +0.000 HD
ENDBRANCH   9  25
BRANCH  18  27
ATOM     27  O8  UNK     0       1.389   1.366  -0.007  0.00  0.00    +0.000 OA
BRANCH  27  28
ATOM     28  C40 UNK     0       2.724   0.954   0.081  0.00  0.00    +0.000 C 
ATOM     29  O12 UNK     0       3.249   0.277  -0.846  0.00  0.00    +0.000 OA
BRANCH  28  30
ATOM     30  C42 UNK     0       3.556   1.422   1.241  0.00  0.00    +0.000 C 
BRANCH  30  31
ATOM     31  O13 UNK     0       4.534   2.314   0.774  0.00  0.00    +0.000 OA
ATOM     32 1H10 UNK     0       4.074   3.177   0.570  0.00  0.00    +0.000 HD
ENDBRANCH  30  31
BRANCH  30  33
ATOM     33  C46 UNK     0       4.208   0.245   2.000  0.00  0.00    +0.000 C 
BRANCH  33  34
ATOM     34  C50 UNK     0       4.796   0.716   3.318  0.00  0.00    +0.000 A 
ATOM     35  C52 UNK     0       4.143   0.409   4.526  0.00  0.00    +0.000 A 
ATOM     36  C55 UNK     0       4.637   0.895   5.741  0.00  0.00    +0.000 A 
ATOM     37  C57 UNK     0       5.775   1.704   5.762  0.00  0.00    +0.000 A 
ATOM     38  C54 UNK     0       6.429   2.021   4.569  0.00  0.00    +0.000 A 
ATOM     39  C51 UNK     0       5.946   1.530   3.354  0.00  0.00    +0.000 A 
ENDBRANCH  33  34
BRANCH  33  40
ATOM     40  N15 UNK     0       5.240  -0.408   1.179  0.00  0.00    +0.000 N 
ATOM     41 3H10 UNK     0       6.061   0.156   0.869  0.00  0.00    +0.000 HD
ATOM     42  C53 UNK     0       5.164  -1.792   0.790  0.00  0.00    +0.000 C 
ATOM     43  O14 UNK     0       4.342  -2.560   1.363  0.00  0.00    +0.000 OA
BRANCH  42  44
ATOM     44  C56 UNK     0       6.053  -2.340  -0.264  0.00  0.00    +0.000 A 
ATOM     45  C59 UNK     0       6.627  -1.500  -1.240  0.00  0.00    +0.000 A 
ATOM     46  C61 UNK     0       7.463  -2.028  -2.227  0.00  0.00    +0.000 A 
ATOM     47  C62 UNK     0       7.731  -3.398  -2.259  0.00  0.00    +0.000 A 
ATOM     48  C60 UNK     0       7.156  -4.245  -1.310  0.00  0.00    +0.000 A 
ATOM     49  C58 UNK     0       6.318  -3.723  -0.320  0.00  0.00    +0.000 A 
ENDBRANCH  42  44
ENDBRANCH  33  40
ENDBRANCH  30  33
ENDBRANCH  28  30
ENDBRANCH  27  28
ENDBRANCH  18  27
BRANCH  17  50
ATOM     50  O6  UNK     0      -2.990   4.022  -2.805  0.00  0.00    +0.000 OA
BRANCH  50  51
ATOM     51  C39 UNK     0      -3.783   5.174  -2.759  0.00  0.00    +0.000 C 
ATOM     52  C43 UNK     0      -3.936   6.005  -3.985  0.00  0.00    +0.000 C 
ATOM     53  O11 UNK     0      -4.353   5.525  -1.692  0.00  0.00    +0.000 OA
ENDBRANCH  50  51
ENDBRANCH  17  50
BRANCH   7  54
ATOM     54  O3  UNK     0      -2.225  -1.918  -0.873  0.00  0.00    +0.000 OA
BRANCH  54  55
ATOM     55  C37 UNK     0      -2.798  -3.079  -1.414  0.00  0.00    +0.000 C 
ATOM     56  O10 UNK     0      -3.497  -3.022  -2.461  0.00  0.00    +0.000 OA
BRANCH  55  57
ATOM     57  C41 UNK     0      -2.582  -4.374  -0.733  0.00  0.00    +0.000 A 
ATOM     58  C45 UNK     0      -1.641  -4.482   0.307  0.00  0.00    +0.000 A 
ATOM     59  C48 UNK     0      -1.474  -5.693   0.987  0.00  0.00    +0.000 A 
ATOM     60  C49 UNK     0      -2.232  -6.809   0.629  0.00  0.00    +0.000 A 
ATOM     61  C47 UNK     0      -3.160  -6.716  -0.411  0.00  0.00    +0.000 A 
ATOM     62  C44 UNK     0      -3.337  -5.506  -1.091  0.00  0.00    +0.000 A 
ENDBRANCH  55  57
ENDBRANCH  54  55
ENDBRANCH   7  54
BRANCH   4  63
ATOM     63  O2  UNK     0      -1.360  -0.759   1.612  0.00  0.00    +0.000 OA
BRANCH  63  64
ATOM     64  C36 UNK     0      -0.846  -1.487   2.696  0.00  0.00    +0.000 C 
ATOM     65  O9  UNK     0      -1.600  -2.049   3.539  0.00  0.00    +0.000 OA
ATOM     66  C38 UNK     0       0.634  -1.553   2.875  0.00  0.00    +0.000 C 
ENDBRANCH  63  64
ENDBRANCH   4  63
TORSDOF 17
