REMARK  Name = C:\Users\Maximilian\Desktop\Conformers\converted_pdb\conformers_pdb\Paclitaxel_conf_48.pdb
REMARK  23 active torsions:
REMARK  status: ('A' for Active; 'I' for Inactive)
REMARK    1  A    between atoms: C17_4  and  O2_61
REMARK    2  A    between atoms: C18_5  and  C29_16
REMARK    3  A    between atoms: C20_7  and  O3_52
REMARK    4  A    between atoms: C21_8  and  O4_46
REMARK    5  A    between atoms: C22_9  and  O5_65
REMARK    6  A    between atoms: C24_11  and  C33_20
REMARK    7  A    between atoms: C24_11  and  C34_21
REMARK    8  A    between atoms: C30_17  and  O6_48
REMARK    9  A    between atoms: C31_18  and  O8_23
REMARK   10  A    between atoms: C32_19  and  C35_22
REMARK   11  A    between atoms: O8_23  and  C40_24
REMARK   12  A    between atoms: C40_24  and  C42_26
REMARK   13  A    between atoms: C42_26  and  O13_27
REMARK   14  A    between atoms: C42_26  and  C46_29
REMARK   15  A    between atoms: C46_29  and  N15_30
REMARK   16  A    between atoms: C46_29  and  C50_40
REMARK   17  A    between atoms: C53_32  and  C56_34
REMARK   18  A    between atoms: O6_48  and  C39_49
REMARK   19  A    between atoms: C39_49  and  C43_50
REMARK   20  A    between atoms: O3_52  and  C37_53
REMARK   21  A    between atoms: C37_53  and  C41_55
REMARK   22  A    between atoms: O2_61  and  C36_62
REMARK   23  A    between atoms: C36_62  and  C38_64
REMARK                            x       y       z     vdW  Elec       q    Type
REMARK                         _______ _______ _______ _____ _____    ______ ____
ROOT
ATOM      1  O1  UNK     0      -4.688   1.297   1.881  0.00  0.00    +0.000 OA
ATOM      2  O7  UNK     0      -0.427   3.286  -1.952  0.00  0.00    +0.000 OA
ATOM      3  C16 UNK     0      -2.122   0.520  -0.325  0.00  0.00    +0.000 C 
ATOM      4  C17 UNK     0      -2.847   0.550   1.098  0.00  0.00    +0.000 C 
ATOM      5  C18 UNK     0      -2.252   1.874  -1.203  0.00  0.00    +0.000 C 
ATOM      6  C19 UNK     0      -3.408   1.851   1.684  0.00  0.00    +0.000 C 
ATOM      7  C20 UNK     0      -2.343  -0.921  -1.044  0.00  0.00    +0.000 C 
ATOM      8  C21 UNK     0      -1.088  -1.835  -1.451  0.00  0.00    +0.000 C 
ATOM      9  C22 UNK     0      -2.406   3.111  -0.224  0.00  0.00    +0.000 C 
ATOM     10  C23 UNK     0      -3.567   3.022   0.739  0.00  0.00    +0.000 C 
ATOM     11  C24 UNK     0      -0.389  -1.371  -2.776  0.00  0.00    +0.000 C 
ATOM     12  C25 UNK     0      -4.317   0.132   1.194  0.00  0.00    +0.000 C 
ATOM     13  C26 UNK     0      -0.975   2.198  -2.067  0.00  0.00    +0.000 C 
ATOM     14  C27 UNK     0      -0.060  -1.899  -0.269  0.00  0.00    +0.000 C 
ATOM     15  C28 UNK     0       0.176   0.024  -2.472  0.00  0.00    +0.000 C 
ATOM     16  C29 UNK     0      -3.482   1.816  -2.143  0.00  0.00    +0.000 C 
ATOM     17  C30 UNK     0      -0.343   1.308  -3.118  0.00  0.00    +0.000 C 
ATOM     18  C31 UNK     0       1.206  -0.996  -0.399  0.00  0.00    +0.000 C 
ATOM     19  C32 UNK     0       1.054   0.132  -1.415  0.00  0.00    +0.000 C 
ATOM     20  C33 UNK     0      -1.373  -1.491  -3.983  0.00  0.00    +0.000 C 
ATOM     21  C34 UNK     0       0.813  -2.288  -3.204  0.00  0.00    +0.000 C 
ATOM     22  C35 UNK     0       1.887   1.377  -1.155  0.00  0.00    +0.000 C 
ENDROOT
BRANCH   8  23
ATOM     23  O4  UNK     0      -1.595  -3.139  -1.655  0.00  0.00    +0.000 OA
ATOM     24  H84 UNK     0      -0.846  -3.748  -1.911  0.00  0.00    +0.000 HD
ENDBRANCH   8  23
BRANCH   9  25
ATOM     25  O5  UNK     0      -2.482   4.340  -0.917  0.00  0.00    +0.000 OA
ATOM     26  H85 UNK     0      -3.403   4.478  -1.256  0.00  0.00    +0.000 HD
ENDBRANCH   9  25
BRANCH  18  27
ATOM     27  O8  UNK     0       1.529  -0.460   0.892  0.00  0.00    +0.000 OA
BRANCH  27  28
ATOM     28  C40 UNK     0       2.009  -1.249   1.946  0.00  0.00    +0.000 C 
ATOM     29  O12 UNK     0       1.978  -2.505   1.863  0.00  0.00    +0.000 OA
BRANCH  28  30
ATOM     30  C42 UNK     0       2.673  -0.616   3.143  0.00  0.00    +0.000 C 
BRANCH  30  31
ATOM     31  O13 UNK     0       2.017   0.559   3.552  0.00  0.00    +0.000 OA
ATOM     32 1H10 UNK     0       1.844   1.139   2.764  0.00  0.00    +0.000 HD
ENDBRANCH  30  31
BRANCH  30  33
ATOM     33  C46 UNK     0       4.180  -0.384   2.872  0.00  0.00    +0.000 C 
BRANCH  33  34
ATOM     34  C50 UNK     0       4.902   0.095   4.118  0.00  0.00    +0.000 A 
ATOM     35  C52 UNK     0       5.592  -0.829   4.923  0.00  0.00    +0.000 A 
ATOM     36  C55 UNK     0       6.256  -0.404   6.077  0.00  0.00    +0.000 A 
ATOM     37  C57 UNK     0       6.238   0.944   6.435  0.00  0.00    +0.000 A 
ATOM     38  C54 UNK     0       5.553   1.871   5.649  0.00  0.00    +0.000 A 
ATOM     39  C51 UNK     0       4.884   1.452   4.498  0.00  0.00    +0.000 A 
ENDBRANCH  33  34
BRANCH  33  40
ATOM     40  N15 UNK     0       4.405   0.546   1.756  0.00  0.00    +0.000 N 
ATOM     41 3H10 UNK     0       3.706   1.292   1.571  0.00  0.00    +0.000 HD
ATOM     42  C53 UNK     0       5.559   0.446   0.900  0.00  0.00    +0.000 C 
ATOM     43  O14 UNK     0       6.394  -0.482   1.083  0.00  0.00    +0.000 OA
BRANCH  42  44
ATOM     44  C56 UNK     0       5.750   1.383  -0.234  0.00  0.00    +0.000 A 
ATOM     45  C59 UNK     0       6.435   0.958  -1.387  0.00  0.00    +0.000 A 
ATOM     46  C61 UNK     0       6.602   1.827  -2.469  0.00  0.00    +0.000 A 
ATOM     47  C62 UNK     0       6.089   3.124  -2.409  0.00  0.00    +0.000 A 
ATOM     48  C60 UNK     0       5.417   3.558  -1.267  0.00  0.00    +0.000 A 
ATOM     49  C58 UNK     0       5.252   2.696  -0.179  0.00  0.00    +0.000 A 
ENDBRANCH  42  44
ENDBRANCH  33  40
ENDBRANCH  30  33
ENDBRANCH  28  30
ENDBRANCH  27  28
ENDBRANCH  18  27
BRANCH  17  50
ATOM     50  O6  UNK     0      -1.232   1.129  -4.211  0.00  0.00    +0.000 OA
BRANCH  50  51
ATOM     51  C39 UNK     0      -1.598   2.143  -5.106  0.00  0.00    +0.000 C 
ATOM     52  C43 UNK     0      -2.553   1.827  -6.212  0.00  0.00    +0.000 C 
ATOM     53  O11 UNK     0      -1.136   3.306  -4.989  0.00  0.00    +0.000 OA
ENDBRANCH  50  51
ENDBRANCH  17  50
BRANCH   7  54
ATOM     54  O3  UNK     0      -3.171  -1.761  -0.223  0.00  0.00    +0.000 OA
BRANCH  54  55
ATOM     55  C37 UNK     0      -4.189  -2.606  -0.698  0.00  0.00    +0.000 C 
ATOM     56  O10 UNK     0      -4.442  -2.674  -1.923  0.00  0.00    +0.000 OA
BRANCH  55  57
ATOM     57  C41 UNK     0      -4.954  -3.431   0.260  0.00  0.00    +0.000 A 
ATOM     58  C45 UNK     0      -4.473  -3.644   1.564  0.00  0.00    +0.000 A 
ATOM     59  C48 UNK     0      -5.190  -4.448   2.457  0.00  0.00    +0.000 A 
ATOM     60  C49 UNK     0      -6.399  -5.025   2.068  0.00  0.00    +0.000 A 
ATOM     61  C47 UNK     0      -6.887  -4.819   0.776  0.00  0.00    +0.000 A 
ATOM     62  C44 UNK     0      -6.171  -4.027  -0.127  0.00  0.00    +0.000 A 
ENDBRANCH  55  57
ENDBRANCH  54  55
ENDBRANCH   7  54
BRANCH   4  63
ATOM     63  O2  UNK     0      -2.006  -0.151   2.046  0.00  0.00    +0.000 OA
BRANCH  63  64
ATOM     64  C36 UNK     0      -2.269  -0.476   3.387  0.00  0.00    +0.000 C 
ATOM     65  O9  UNK     0      -3.357  -0.159   3.945  0.00  0.00    +0.000 OA
ATOM     66  C38 UNK     0      -1.203  -1.143   4.186  0.00  0.00    +0.000 C 
ENDBRANCH  63  64
ENDBRANCH   4  63
TORSDOF 17
