REMARK  Name = C:\Users\Maximilian\Desktop\Conformers\converted_pdb\conformers_pdb\Paclitaxel_conf_39.pdb
REMARK  23 active torsions:
REMARK  status: ('A' for Active; 'I' for Inactive)
REMARK    1  A    between atoms: C17_4  and  O2_61
REMARK    2  A    between atoms: C18_5  and  C29_16
REMARK    3  A    between atoms: C20_7  and  O3_52
REMARK    4  A    between atoms: C21_8  and  O4_46
REMARK    5  A    between atoms: C22_9  and  O5_65
REMARK    6  A    between atoms: C24_11  and  C33_20
REMARK    7  A    between atoms: C24_11  and  C34_21
REMARK    8  A    between atoms: C30_17  and  O6_48
REMARK    9  A    between atoms: C31_18  and  O8_23
REMARK   10  A    between atoms: C32_19  and  C35_22
REMARK   11  A    between atoms: O8_23  and  C40_24
REMARK   12  A    between atoms: C40_24  and  C42_26
REMARK   13  A    between atoms: C42_26  and  O13_27
REMARK   14  A    between atoms: C42_26  and  C46_29
REMARK   15  A    between atoms: C46_29  and  N15_30
REMARK   16  A    between atoms: C46_29  and  C50_40
REMARK   17  A    between atoms: C53_32  and  C56_34
REMARK   18  A    between atoms: O6_48  and  C39_49
REMARK   19  A    between atoms: C39_49  and  C43_50
REMARK   20  A    between atoms: O3_52  and  C37_53
REMARK   21  A    between atoms: C37_53  and  C41_55
REMARK   22  A    between atoms: O2_61  and  C36_62
REMARK   23  A    between atoms: C36_62  and  C38_64
REMARK                            x       y       z     vdW  Elec       q    Type
REMARK                         _______ _______ _______ _____ _____    ______ ____
ROOT
ATOM      1  O1  UNK     0      -4.985  -1.798  -1.115  0.00  0.00    +0.000 OA
ATOM      2  O7  UNK     0      -2.685  -0.801   4.243  0.00  0.00    +0.000 OA
ATOM      3  C16 UNK     0      -2.507  -0.337   0.612  0.00  0.00    +0.000 C 
ATOM      4  C17 UNK     0      -3.088  -0.873  -0.774  0.00  0.00    +0.000 C 
ATOM      5  C18 UNK     0      -2.958  -1.172   1.892  0.00  0.00    +0.000 C 
ATOM      6  C19 UNK     0      -3.705  -2.285  -0.795  0.00  0.00    +0.000 C 
ATOM      7  C20 UNK     0      -2.524   1.240   0.844  0.00  0.00    +0.000 C 
ATOM      8  C21 UNK     0      -1.110   1.992   1.007  0.00  0.00    +0.000 C 
ATOM      9  C22 UNK     0      -2.768  -2.682   1.549  0.00  0.00    +0.000 C 
ATOM     10  C23 UNK     0      -3.742  -3.152   0.477  0.00  0.00    +0.000 C 
ATOM     11  C24 UNK     0      -0.371   1.651   2.363  0.00  0.00    +0.000 C 
ATOM     12  C25 UNK     0      -4.507  -0.478  -1.191  0.00  0.00    +0.000 C 
ATOM     13  C26 UNK     0      -2.110  -0.883   3.165  0.00  0.00    +0.000 C 
ATOM     14  C27 UNK     0      -0.151   1.677  -0.204  0.00  0.00    +0.000 C 
ATOM     15  C28 UNK     0       0.033   0.161   2.279  0.00  0.00    +0.000 C 
ATOM     16  C29 UNK     0      -4.454  -0.870   2.237  0.00  0.00    +0.000 C 
ATOM     17  C30 UNK     0      -0.586  -0.890   3.197  0.00  0.00    +0.000 C 
ATOM     18  C31 UNK     0       1.054   0.718   0.064  0.00  0.00    +0.000 C 
ATOM     19  C32 UNK     0       0.828  -0.225   1.237  0.00  0.00    +0.000 C 
ATOM     20  C33 UNK     0      -1.230   2.021   3.617  0.00  0.00    +0.000 C 
ATOM     21  C34 UNK     0       0.932   2.515   2.536  0.00  0.00    +0.000 C 
ATOM     22  C35 UNK     0       1.460  -1.605   1.176  0.00  0.00    +0.000 C 
ENDROOT
BRANCH   8  23
ATOM     23  O4  UNK     0      -1.356   3.386   1.038  0.00  0.00    +0.000 OA
ATOM     24  H84 UNK     0      -1.595   3.687   0.125  0.00  0.00    +0.000 HD
ENDBRANCH   8  23
BRANCH   9  25
ATOM     25  O5  UNK     0      -2.846  -3.516   2.683  0.00  0.00    +0.000 OA
ATOM     26  H85 UNK     0      -3.781  -3.517   3.009  0.00  0.00    +0.000 HD
ENDBRANCH   9  25
BRANCH  18  27
ATOM     27  O8  UNK     0       1.338  -0.037  -1.118  0.00  0.00    +0.000 OA
BRANCH  27  28
ATOM     28  C40 UNK     0       1.906   0.502  -2.277  0.00  0.00    +0.000 C 
ATOM     29  O12 UNK     0       1.892   1.740  -2.479  0.00  0.00    +0.000 OA
BRANCH  28  30
ATOM     30  C42 UNK     0       2.596  -0.398  -3.267  0.00  0.00    +0.000 C 
BRANCH  30  31
ATOM     31  O13 UNK     0       2.113  -1.717  -3.180  0.00  0.00    +0.000 OA
ATOM     32 1H10 UNK     0       2.307  -2.059  -2.270  0.00  0.00    +0.000 HD
ENDBRANCH  30  31
BRANCH  30  33
ATOM     33  C46 UNK     0       4.138  -0.333  -3.099  0.00  0.00    +0.000 C 
BRANCH  33  34
ATOM     34  C50 UNK     0       4.935  -1.043  -4.188  0.00  0.00    +0.000 A 
ATOM     35  C52 UNK     0       6.342  -1.028  -4.090  0.00  0.00    +0.000 A 
ATOM     36  C55 UNK     0       7.142  -1.640  -5.063  0.00  0.00    +0.000 A 
ATOM     37  C57 UNK     0       6.548  -2.274  -6.158  0.00  0.00    +0.000 A 
ATOM     38  C54 UNK     0       5.156  -2.290  -6.279  0.00  0.00    +0.000 A 
ATOM     39  C51 UNK     0       4.353  -1.683  -5.305  0.00  0.00    +0.000 A 
ENDBRANCH  33  34
BRANCH  33  40
ATOM     40  N15 UNK     0       4.533  -0.859  -1.781  0.00  0.00    +0.000 N 
ATOM     41 3H10 UNK     0       4.665  -1.891  -1.696  0.00  0.00    +0.000 HD
ATOM     42  C53 UNK     0       4.810   0.001  -0.657  0.00  0.00    +0.000 C 
ATOM     43  O14 UNK     0       4.664   1.250  -0.771  0.00  0.00    +0.000 OA
BRANCH  42  44
ATOM     44  C56 UNK     0       5.259  -0.551   0.645  0.00  0.00    +0.000 A 
ATOM     45  C59 UNK     0       5.969   0.273   1.541  0.00  0.00    +0.000 A 
ATOM     46  C61 UNK     0       6.388  -0.215   2.782  0.00  0.00    +0.000 A 
ATOM     47  C62 UNK     0       6.107  -1.535   3.145  0.00  0.00    +0.000 A 
ATOM     48  C60 UNK     0       5.406  -2.366   2.267  0.00  0.00    +0.000 A 
ATOM     49  C58 UNK     0       4.998  -1.886   1.019  0.00  0.00    +0.000 A 
ENDBRANCH  42  44
ENDBRANCH  33  40
ENDBRANCH  30  33
ENDBRANCH  28  30
ENDBRANCH  27  28
ENDBRANCH  18  27
BRANCH  17  50
ATOM     50  O6  UNK     0      -0.118  -0.652   4.528  0.00  0.00    +0.000 OA
BRANCH  50  51
ATOM     51  C39 UNK     0       0.879  -1.410   5.156  0.00  0.00    +0.000 C 
ATOM     52  C43 UNK     0       1.369  -0.998   6.507  0.00  0.00    +0.000 C 
ATOM     53  O11 UNK     0       1.338  -2.467   4.631  0.00  0.00    +0.000 OA
ENDBRANCH  50  51
ENDBRANCH  17  50
BRANCH   7  54
ATOM     54  O3  UNK     0      -3.352   1.908  -0.126  0.00  0.00    +0.000 OA
BRANCH  54  55
ATOM     55  C37 UNK     0      -4.239   2.950   0.217  0.00  0.00    +0.000 C 
ATOM     56  O10 UNK     0      -4.194   3.454   1.373  0.00  0.00    +0.000 OA
BRANCH  55  57
ATOM     57  C41 UNK     0      -5.244   3.461  -0.746  0.00  0.00    +0.000 A 
ATOM     58  C45 UNK     0      -5.341   2.939  -2.049  0.00  0.00    +0.000 A 
ATOM     59  C48 UNK     0      -6.298   3.423  -2.945  0.00  0.00    +0.000 A 
ATOM     60  C49 UNK     0      -7.188   4.425  -2.547  0.00  0.00    +0.000 A 
ATOM     61  C47 UNK     0      -7.116   4.946  -1.250  0.00  0.00    +0.000 A 
ATOM     62  C44 UNK     0      -6.147   4.473  -0.357  0.00  0.00    +0.000 A 
ENDBRANCH  55  57
ENDBRANCH  54  55
ENDBRANCH   7  54
BRANCH   4  63
ATOM     63  O2  UNK     0      -2.109  -0.859  -1.833  0.00  0.00    +0.000 OA
BRANCH  63  64
ATOM     64  C36 UNK     0      -1.972   0.074  -2.867  0.00  0.00    +0.000 C 
ATOM     65  O9  UNK     0      -2.592   1.161  -2.852  0.00  0.00    +0.000 OA
ATOM     66  C38 UNK     0      -1.099  -0.256  -4.030  0.00  0.00    +0.000 C 
ENDBRANCH  63  64
ENDBRANCH   4  63
TORSDOF 17
