REMARK  Name = C:\Users\Maximilian\Desktop\Conformers\converted_pdb\conformers_pdb\Paclitaxel_conf_45.pdb
REMARK  23 active torsions:
REMARK  status: ('A' for Active; 'I' for Inactive)
REMARK    1  A    between atoms: C17_4  and  O2_61
REMARK    2  A    between atoms: C18_5  and  C29_16
REMARK    3  A    between atoms: C20_7  and  O3_52
REMARK    4  A    between atoms: C21_8  and  O4_46
REMARK    5  A    between atoms: C22_9  and  O5_65
REMARK    6  A    between atoms: C24_11  and  C33_20
REMARK    7  A    between atoms: C24_11  and  C34_21
REMARK    8  A    between atoms: C30_17  and  O6_48
REMARK    9  A    between atoms: C31_18  and  O8_23
REMARK   10  A    between atoms: C32_19  and  C35_22
REMARK   11  A    between atoms: O8_23  and  C40_24
REMARK   12  A    between atoms: C40_24  and  C42_26
REMARK   13  A    between atoms: C42_26  and  O13_27
REMARK   14  A    between atoms: C42_26  and  C46_29
REMARK   15  A    between atoms: C46_29  and  N15_30
REMARK   16  A    between atoms: C46_29  and  C50_40
REMARK   17  A    between atoms: C53_32  and  C56_34
REMARK   18  A    between atoms: O6_48  and  C39_49
REMARK   19  A    between atoms: C39_49  and  C43_50
REMARK   20  A    between atoms: O3_52  and  C37_53
REMARK   21  A    between atoms: C37_53  and  C41_55
REMARK   22  A    between atoms: O2_61  and  C36_62
REMARK   23  A    between atoms: C36_62  and  C38_64
REMARK                            x       y       z     vdW  Elec       q    Type
REMARK                         _______ _______ _______ _____ _____    ______ ____
ROOT
ATOM      1  O1  UNK     0      -6.226  -0.161  -2.151  0.00  0.00    +0.000 OA
ATOM      2  O7  UNK     0      -0.811  -1.168  -1.248  0.00  0.00    +0.000 OA
ATOM      3  C16 UNK     0      -3.449  -0.460  -0.078  0.00  0.00    +0.000 C 
ATOM      4  C17 UNK     0      -4.954  -0.020  -0.432  0.00  0.00    +0.000 C 
ATOM      5  C18 UNK     0      -3.060  -1.793  -0.890  0.00  0.00    +0.000 C 
ATOM      6  C19 UNK     0      -5.021   0.506  -1.866  0.00  0.00    +0.000 C 
ATOM      7  C20 UNK     0      -2.898   0.197   1.311  0.00  0.00    +0.000 C 
ATOM      8  C21 UNK     0      -1.672  -0.308   2.230  0.00  0.00    +0.000 C 
ATOM      9  C22 UNK     0      -3.395  -1.500  -2.461  0.00  0.00    +0.000 C 
ATOM     10  C23 UNK     0      -3.913  -0.049  -2.791  0.00  0.00    +0.000 C 
ATOM     11  C24 UNK     0      -1.443  -1.861   2.458  0.00  0.00    +0.000 C 
ATOM     12  C25 UNK     0      -6.086  -0.920  -0.981  0.00  0.00    +0.000 C 
ATOM     13  C26 UNK     0      -1.545  -2.012  -0.755  0.00  0.00    +0.000 C 
ATOM     14  C27 UNK     0      -0.335   0.365   1.715  0.00  0.00    +0.000 C 
ATOM     15  C28 UNK     0      -0.442  -2.403   1.394  0.00  0.00    +0.000 C 
ATOM     16  C29 UNK     0      -3.777  -3.139  -0.486  0.00  0.00    +0.000 C 
ATOM     17  C30 UNK     0      -0.870  -3.072   0.105  0.00  0.00    +0.000 C 
ATOM     18  C31 UNK     0       0.996  -0.416   1.762  0.00  0.00    +0.000 C 
ATOM     19  C32 UNK     0       0.803  -1.864   1.382  0.00  0.00    +0.000 C 
ATOM     20  C33 UNK     0      -2.799  -2.581   2.629  0.00  0.00    +0.000 C 
ATOM     21  C34 UNK     0      -0.727  -2.159   3.819  0.00  0.00    +0.000 C 
ATOM     22  C35 UNK     0       1.956  -2.614   0.779  0.00  0.00    +0.000 C 
ENDROOT
BRANCH   8  23
ATOM     23  O4  UNK     0      -1.997   0.221   3.517  0.00  0.00    +0.000 OA
ATOM     24  H84 UNK     0      -1.975   1.214   3.478  0.00  0.00    +0.000 HD
ENDBRANCH   8  23
BRANCH   9  25
ATOM     25  O5  UNK     0      -4.284  -2.466  -2.966  0.00  0.00    +0.000 OA
ATOM     26  H85 UNK     0      -4.306  -2.341  -3.947  0.00  0.00    +0.000 HD
ENDBRANCH   9  25
BRANCH  18  27
ATOM     27  O8  UNK     0       1.880   0.135   0.786  0.00  0.00    +0.000 OA
BRANCH  27  28
ATOM     28  C40 UNK     0       2.225   1.479   0.654  0.00  0.00    +0.000 C 
ATOM     29  O12 UNK     0       1.805   2.350   1.459  0.00  0.00    +0.000 OA
BRANCH  28  30
ATOM     30  C42 UNK     0       3.182   1.829  -0.431  0.00  0.00    +0.000 C 
BRANCH  30  31
ATOM     31  O13 UNK     0       2.687   1.372  -1.662  0.00  0.00    +0.000 OA
ATOM     32 1H10 UNK     0       1.914   1.950  -1.880  0.00  0.00    +0.000 HD
ENDBRANCH  30  31
BRANCH  30  33
ATOM     33  C46 UNK     0       4.526   1.144  -0.121  0.00  0.00    +0.000 C 
BRANCH  33  34
ATOM     34  C50 UNK     0       5.090   1.651   1.191  0.00  0.00    +0.000 A 
ATOM     35  C52 UNK     0       4.893   0.914   2.372  0.00  0.00    +0.000 A 
ATOM     36  C55 UNK     0       5.367   1.407   3.589  0.00  0.00    +0.000 A 
ATOM     37  C57 UNK     0       6.025   2.642   3.639  0.00  0.00    +0.000 A 
ATOM     38  C54 UNK     0       6.211   3.384   2.471  0.00  0.00    +0.000 A 
ATOM     39  C51 UNK     0       5.732   2.900   1.254  0.00  0.00    +0.000 A 
ENDBRANCH  33  34
BRANCH  33  40
ATOM     40  N15 UNK     0       5.503   1.371  -1.178  0.00  0.00    +0.000 N 
ATOM     41 3H10 UNK     0       5.333   2.116  -1.894  0.00  0.00    +0.000 HD
ATOM     42  C53 UNK     0       6.663   0.526  -1.258  0.00  0.00    +0.000 C 
ATOM     43  O14 UNK     0       6.839  -0.378  -0.400  0.00  0.00    +0.000 OA
BRANCH  42  44
ATOM     44  C56 UNK     0       7.701   0.753  -2.278  0.00  0.00    +0.000 A 
ATOM     45  C59 UNK     0       7.962   2.033  -2.797  0.00  0.00    +0.000 A 
ATOM     46  C61 UNK     0       8.990   2.220  -3.729  0.00  0.00    +0.000 A 
ATOM     47  C62 UNK     0       9.763   1.129  -4.134  0.00  0.00    +0.000 A 
ATOM     48  C60 UNK     0       9.516  -0.144  -3.614  0.00  0.00    +0.000 A 
ATOM     49  C58 UNK     0       8.498  -0.329  -2.681  0.00  0.00    +0.000 A 
ENDBRANCH  42  44
ENDBRANCH  33  40
ENDBRANCH  30  33
ENDBRANCH  28  30
ENDBRANCH  27  28
ENDBRANCH  18  27
BRANCH  17  50
ATOM     50  O6  UNK     0      -1.520  -4.301   0.346  0.00  0.00    +0.000 OA
BRANCH  50  51
ATOM     51  C39 UNK     0      -0.763  -5.460   0.595  0.00  0.00    +0.000 C 
ATOM     52  C43 UNK     0      -1.146  -6.322   1.745  0.00  0.00    +0.000 C 
ATOM     53  O11 UNK     0       0.245  -5.740  -0.117  0.00  0.00    +0.000 OA
ENDBRANCH  50  51
ENDBRANCH  17  50
BRANCH   7  54
ATOM     54  O3  UNK     0      -2.573   1.612   1.103  0.00  0.00    +0.000 OA
BRANCH  54  55
ATOM     55  C37 UNK     0      -3.345   2.631   0.570  0.00  0.00    +0.000 C 
ATOM     56  O10 UNK     0      -4.281   3.109   1.270  0.00  0.00    +0.000 OA
BRANCH  55  57
ATOM     57  C41 UNK     0      -3.058   3.133  -0.781  0.00  0.00    +0.000 A 
ATOM     58  C45 UNK     0      -4.025   3.870  -1.481  0.00  0.00    +0.000 A 
ATOM     59  C48 UNK     0      -3.884   4.089  -2.852  0.00  0.00    +0.000 A 
ATOM     60  C49 UNK     0      -2.739   3.654  -3.520  0.00  0.00    +0.000 A 
ATOM     61  C47 UNK     0      -1.731   2.983  -2.813  0.00  0.00    +0.000 A 
ATOM     62  C44 UNK     0      -1.871   2.761  -1.450  0.00  0.00    +0.000 A 
ENDBRANCH  55  57
ENDBRANCH  54  55
ENDBRANCH   7  54
BRANCH   4  63
ATOM     63  O2  UNK     0      -5.488   0.912   0.546  0.00  0.00    +0.000 OA
BRANCH  63  64
ATOM     64  C36 UNK     0      -6.773   1.484   0.553  0.00  0.00    +0.000 C 
ATOM     65  O9  UNK     0      -7.507   1.523  -0.473  0.00  0.00    +0.000 OA
ATOM     66  C38 UNK     0      -7.322   2.030   1.833  0.00  0.00    +0.000 C 
ENDBRANCH  63  64
ENDBRANCH   4  63
TORSDOF 17
