REMARK  Name = C:\Users\Maximilian\Desktop\Conformers\converted_pdb\conformers_pdb\Paclitaxel_conf_68.pdb
REMARK  23 active torsions:
REMARK  status: ('A' for Active; 'I' for Inactive)
REMARK    1  A    between atoms: C17_4  and  O2_61
REMARK    2  A    between atoms: C18_5  and  C29_16
REMARK    3  A    between atoms: C20_7  and  O3_52
REMARK    4  A    between atoms: C21_8  and  O4_46
REMARK    5  A    between atoms: C22_9  and  O5_65
REMARK    6  A    between atoms: C24_11  and  C33_20
REMARK    7  A    between atoms: C24_11  and  C34_21
REMARK    8  A    between atoms: C30_17  and  O6_48
REMARK    9  A    between atoms: C31_18  and  O8_23
REMARK   10  A    between atoms: C32_19  and  C35_22
REMARK   11  A    between atoms: O8_23  and  C40_24
REMARK   12  A    between atoms: C40_24  and  C42_26
REMARK   13  A    between atoms: C42_26  and  O13_27
REMARK   14  A    between atoms: C42_26  and  C46_29
REMARK   15  A    between atoms: C46_29  and  N15_30
REMARK   16  A    between atoms: C46_29  and  C50_40
REMARK   17  A    between atoms: C53_32  and  C56_34
REMARK   18  A    between atoms: O6_48  and  C39_49
REMARK   19  A    between atoms: C39_49  and  C43_50
REMARK   20  A    between atoms: O3_52  and  C37_53
REMARK   21  A    between atoms: C37_53  and  C41_55
REMARK   22  A    between atoms: O2_61  and  C36_62
REMARK   23  A    between atoms: C36_62  and  C38_64
REMARK                            x       y       z     vdW  Elec       q    Type
REMARK                         _______ _______ _______ _____ _____    ______ ____
ROOT
ATOM      1  O1  UNK     0      -4.455  -1.912  -2.227  0.00  0.00    +0.000 OA
ATOM      2  O7  UNK     0      -0.887  -3.469   1.423  0.00  0.00    +0.000 OA
ATOM      3  C16 UNK     0      -2.430  -0.647   0.134  0.00  0.00    +0.000 C 
ATOM      4  C17 UNK     0      -2.961  -0.669  -1.363  0.00  0.00    +0.000 C 
ATOM      5  C18 UNK     0      -2.736  -1.986   1.009  0.00  0.00    +0.000 C 
ATOM      6  C19 UNK     0      -3.053  -1.995  -2.100  0.00  0.00    +0.000 C 
ATOM      7  C20 UNK     0      -2.726   0.768   0.841  0.00  0.00    +0.000 C 
ATOM      8  C21 UNK     0      -1.504   1.640   1.417  0.00  0.00    +0.000 C 
ATOM      9  C22 UNK     0      -3.227  -3.209   0.110  0.00  0.00    +0.000 C 
ATOM     10  C23 UNK     0      -2.603  -3.202  -1.283  0.00  0.00    +0.000 C 
ATOM     11  C24 UNK     0      -0.874   1.084   2.757  0.00  0.00    +0.000 C 
ATOM     12  C25 UNK     0      -4.472  -0.681  -1.543  0.00  0.00    +0.000 C 
ATOM     13  C26 UNK     0      -1.432  -2.426   1.752  0.00  0.00    +0.000 C 
ATOM     14  C27 UNK     0      -0.386   1.807   0.329  0.00  0.00    +0.000 C 
ATOM     15  C28 UNK     0      -0.233  -0.277   2.383  0.00  0.00    +0.000 C 
ATOM     16  C29 UNK     0      -3.860  -1.819   2.070  0.00  0.00    +0.000 C 
ATOM     17  C30 UNK     0      -0.725  -1.652   2.865  0.00  0.00    +0.000 C 
ATOM     18  C31 UNK     0       0.929   1.006   0.555  0.00  0.00    +0.000 C 
ATOM     19  C32 UNK     0       0.727  -0.247   1.398  0.00  0.00    +0.000 C 
ATOM     20  C33 UNK     0      -1.906   1.071   3.923  0.00  0.00    +0.000 C 
ATOM     21  C34 UNK     0       0.260   2.041   3.297  0.00  0.00    +0.000 C 
ATOM     22  C35 UNK     0       1.679  -1.409   1.177  0.00  0.00    +0.000 C 
ENDROOT
BRANCH   8  23
ATOM     23  O4  UNK     0      -1.977   2.949   1.681  0.00  0.00    +0.000 OA
ATOM     24  H84 UNK     0      -2.862   2.893   2.117  0.00  0.00    +0.000 HD
ENDBRANCH   8  23
BRANCH   9  25
ATOM     25  O5  UNK     0      -4.634  -3.250  -0.023  0.00  0.00    +0.000 OA
ATOM     26  H85 UNK     0      -4.982  -3.978   0.558  0.00  0.00    +0.000 HD
ENDBRANCH   9  25
BRANCH  18  27
ATOM     27  O8  UNK     0       1.503   0.655  -0.707  0.00  0.00    +0.000 OA
BRANCH  27  28
ATOM     28  C40 UNK     0       2.226   1.547  -1.505  0.00  0.00    +0.000 C 
ATOM     29  O12 UNK     0       2.263   2.775  -1.219  0.00  0.00    +0.000 OA
BRANCH  28  30
ATOM     30  C42 UNK     0       3.023   1.038  -2.679  0.00  0.00    +0.000 C 
BRANCH  30  31
ATOM     31  O13 UNK     0       2.435  -0.114  -3.232  0.00  0.00    +0.000 OA
ATOM     32 1H10 UNK     0       2.412  -0.821  -2.536  0.00  0.00    +0.000 HD
ENDBRANCH  30  31
BRANCH  30  33
ATOM     33  C46 UNK     0       4.511   0.820  -2.297  0.00  0.00    +0.000 C 
BRANCH  33  34
ATOM     34  C50 UNK     0       5.342   0.389  -3.495  0.00  0.00    +0.000 A 
ATOM     35  C52 UNK     0       6.246   1.294  -4.080  0.00  0.00    +0.000 A 
ATOM     36  C55 UNK     0       7.014   0.915  -5.186  0.00  0.00    +0.000 A 
ATOM     37  C57 UNK     0       6.884  -0.367  -5.723  0.00  0.00    +0.000 A 
ATOM     38  C54 UNK     0       5.989  -1.276  -5.154  0.00  0.00    +0.000 A 
ATOM     39  C51 UNK     0       5.220  -0.900  -4.050  0.00  0.00    +0.000 A 
ENDBRANCH  33  34
BRANCH  33  40
ATOM     40  N15 UNK     0       4.657  -0.150  -1.200  0.00  0.00    +0.000 N 
ATOM     41 3H10 UNK     0       4.337  -1.126  -1.373  0.00  0.00    +0.000 HD
ATOM     42  C53 UNK     0       5.359   0.160   0.021  0.00  0.00    +0.000 C 
ATOM     43  O14 UNK     0       5.640   1.365   0.280  0.00  0.00    +0.000 OA
BRANCH  42  44
ATOM     44  C56 UNK     0       5.794  -0.901   0.976  0.00  0.00    +0.000 A 
ATOM     45  C59 UNK     0       6.751  -0.587   1.964  0.00  0.00    +0.000 A 
ATOM     46  C61 UNK     0       7.185  -1.554   2.873  0.00  0.00    +0.000 A 
ATOM     47  C62 UNK     0       6.663  -2.847   2.826  0.00  0.00    +0.000 A 
ATOM     48  C60 UNK     0       5.706  -3.175   1.864  0.00  0.00    +0.000 A 
ATOM     49  C58 UNK     0       5.269  -2.213   0.947  0.00  0.00    +0.000 A 
ENDBRANCH  42  44
ENDBRANCH  33  40
ENDBRANCH  30  33
ENDBRANCH  28  30
ENDBRANCH  27  28
ENDBRANCH  18  27
BRANCH  17  50
ATOM     50  O6  UNK     0      -1.530  -1.639   4.041  0.00  0.00    +0.000 OA
BRANCH  50  51
ATOM     51  C39 UNK     0      -1.037  -1.849   5.339  0.00  0.00    +0.000 C 
ATOM     52  C43 UNK     0      -1.994  -1.935   6.479  0.00  0.00    +0.000 C 
ATOM     53  O11 UNK     0       0.193  -2.012   5.550  0.00  0.00    +0.000 OA
ENDBRANCH  50  51
ENDBRANCH  17  50
BRANCH   7  54
ATOM     54  O3  UNK     0      -3.449   1.620  -0.064  0.00  0.00    +0.000 OA
BRANCH  54  55
ATOM     55  C37 UNK     0      -4.753   2.094   0.148  0.00  0.00    +0.000 C 
ATOM     56  O10 UNK     0      -5.390   1.775   1.190  0.00  0.00    +0.000 OA
BRANCH  55  57
ATOM     57  C41 UNK     0      -5.391   2.963  -0.860  0.00  0.00    +0.000 A 
ATOM     58  C45 UNK     0      -4.706   3.295  -2.044  0.00  0.00    +0.000 A 
ATOM     59  C48 UNK     0      -5.311   4.115  -3.001  0.00  0.00    +0.000 A 
ATOM     60  C49 UNK     0      -6.595   4.624  -2.783  0.00  0.00    +0.000 A 
ATOM     61  C47 UNK     0      -7.282   4.306  -1.608  0.00  0.00    +0.000 A 
ATOM     62  C44 UNK     0      -6.685   3.481  -0.651  0.00  0.00    +0.000 A 
ENDBRANCH  55  57
ENDBRANCH  54  55
ENDBRANCH   7  54
BRANCH   4  63
ATOM     63  O2  UNK     0      -2.375   0.342  -2.199  0.00  0.00    +0.000 OA
BRANCH  63  64
ATOM     64  C36 UNK     0      -1.119   0.235  -2.808  0.00  0.00    +0.000 C 
ATOM     65  O9  UNK     0      -0.365  -0.746  -2.566  0.00  0.00    +0.000 OA
ATOM     66  C38 UNK     0      -0.648   1.327  -3.709  0.00  0.00    +0.000 C 
ENDBRANCH  63  64
ENDBRANCH   4  63
TORSDOF 17
