REMARK  Name = C:\Users\Maximilian\Desktop\Conformers\converted_pdb\conformers_pdb\Paclitaxel_conf_76.pdb
REMARK  23 active torsions:
REMARK  status: ('A' for Active; 'I' for Inactive)
REMARK    1  A    between atoms: C17_4  and  O2_61
REMARK    2  A    between atoms: C18_5  and  C29_16
REMARK    3  A    between atoms: C20_7  and  O3_52
REMARK    4  A    between atoms: C21_8  and  O4_46
REMARK    5  A    between atoms: C22_9  and  O5_65
REMARK    6  A    between atoms: C24_11  and  C33_20
REMARK    7  A    between atoms: C24_11  and  C34_21
REMARK    8  A    between atoms: C30_17  and  O6_48
REMARK    9  A    between atoms: C31_18  and  O8_23
REMARK   10  A    between atoms: C32_19  and  C35_22
REMARK   11  A    between atoms: O8_23  and  C40_24
REMARK   12  A    between atoms: C40_24  and  C42_26
REMARK   13  A    between atoms: C42_26  and  O13_27
REMARK   14  A    between atoms: C42_26  and  C46_29
REMARK   15  A    between atoms: C46_29  and  N15_30
REMARK   16  A    between atoms: C46_29  and  C50_40
REMARK   17  A    between atoms: C53_32  and  C56_34
REMARK   18  A    between atoms: O6_48  and  C39_49
REMARK   19  A    between atoms: C39_49  and  C43_50
REMARK   20  A    between atoms: O3_52  and  C37_53
REMARK   21  A    between atoms: C37_53  and  C41_55
REMARK   22  A    between atoms: O2_61  and  C36_62
REMARK   23  A    between atoms: C36_62  and  C38_64
REMARK                            x       y       z     vdW  Elec       q    Type
REMARK                         _______ _______ _______ _____ _____    ______ ____
ROOT
ATOM      1  O1  UNK     0      -4.014  -3.136  -0.325  0.00  0.00    +0.000 OA
ATOM      2  O7  UNK     0      -0.798  -1.421   3.438  0.00  0.00    +0.000 OA
ATOM      3  C16 UNK     0      -2.456  -0.391   0.765  0.00  0.00    +0.000 C 
ATOM      4  C17 UNK     0      -2.753  -1.437  -0.382  0.00  0.00    +0.000 C 
ATOM      5  C18 UNK     0      -2.815  -0.859   2.271  0.00  0.00    +0.000 C 
ATOM      6  C19 UNK     0      -2.640  -2.914  -0.069  0.00  0.00    +0.000 C 
ATOM      7  C20 UNK     0      -2.915   1.086   0.325  0.00  0.00    +0.000 C 
ATOM      8  C21 UNK     0      -1.821   2.255   0.311  0.00  0.00    +0.000 C 
ATOM      9  C22 UNK     0      -3.080  -2.429   2.378  0.00  0.00    +0.000 C 
ATOM     10  C23 UNK     0      -2.259  -3.237   1.373  0.00  0.00    +0.000 C 
ATOM     11  C24 UNK     0      -1.413   2.810   1.727  0.00  0.00    +0.000 C 
ATOM     12  C25 UNK     0      -4.221  -1.768  -0.605  0.00  0.00    +0.000 C 
ATOM     13  C26 UNK     0      -1.597  -0.523   3.188  0.00  0.00    +0.000 C 
ATOM     14  C27 UNK     0      -0.544   1.788  -0.480  0.00  0.00    +0.000 C 
ATOM     15  C28 UNK     0      -0.652   1.687   2.453  0.00  0.00    +0.000 C 
ATOM     16  C29 UNK     0      -4.093  -0.201   2.859  0.00  0.00    +0.000 C 
ATOM     17  C30 UNK     0      -1.176   0.874   3.646  0.00  0.00    +0.000 C 
ATOM     18  C31 UNK     0       0.702   1.354   0.347  0.00  0.00    +0.000 C 
ATOM     19  C32 UNK     0       0.485   1.233   1.848  0.00  0.00    +0.000 C 
ATOM     20  C33 UNK     0      -2.608   3.436   2.504  0.00  0.00    +0.000 C 
ATOM     21  C34 UNK     0      -0.445   4.035   1.584  0.00  0.00    +0.000 C 
ATOM     22  C35 UNK     0       1.625   0.639   2.656  0.00  0.00    +0.000 C 
ENDROOT
BRANCH   8  23
ATOM     23  O4  UNK     0      -2.352   3.339  -0.431  0.00  0.00    +0.000 OA
ATOM     24  H84 UNK     0      -3.270   3.531  -0.112  0.00  0.00    +0.000 HD
ENDBRANCH   8  23
BRANCH   9  25
ATOM     25  O5  UNK     0      -4.444  -2.771   2.221  0.00  0.00    +0.000 OA
ATOM     26  H85 UNK     0      -4.841  -2.903   3.118  0.00  0.00    +0.000 HD
ENDBRANCH   9  25
BRANCH  18  27
ATOM     27  O8  UNK     0       1.170   0.091  -0.147  0.00  0.00    +0.000 OA
BRANCH  27  28
ATOM     28  C40 UNK     0       2.515  -0.158  -0.455  0.00  0.00    +0.000 C 
ATOM     29  O12 UNK     0       3.265   0.787  -0.821  0.00  0.00    +0.000 OA
BRANCH  28  30
ATOM     30  C42 UNK     0       3.092  -1.532  -0.226  0.00  0.00    +0.000 C 
BRANCH  30  31
ATOM     31  O13 UNK     0       3.989  -1.479   0.854  0.00  0.00    +0.000 OA
ATOM     32 1H10 UNK     0       3.442  -1.503   1.681  0.00  0.00    +0.000 HD
ENDBRANCH  30  31
BRANCH  30  33
ATOM     33  C46 UNK     0       3.805  -2.094  -1.487  0.00  0.00    +0.000 C 
BRANCH  33  34
ATOM     34  C50 UNK     0       4.349  -3.519  -1.354  0.00  0.00    +0.000 A 
ATOM     35  C52 UNK     0       4.174  -4.314  -0.194  0.00  0.00    +0.000 A 
ATOM     36  C55 UNK     0       4.741  -5.589  -0.113  0.00  0.00    +0.000 A 
ATOM     37  C57 UNK     0       5.483  -6.095  -1.181  0.00  0.00    +0.000 A 
ATOM     38  C54 UNK     0       5.639  -5.337  -2.344  0.00  0.00    +0.000 A 
ATOM     39  C51 UNK     0       5.064  -4.065  -2.438  0.00  0.00    +0.000 A 
ENDBRANCH  33  34
BRANCH  33  40
ATOM     40  N15 UNK     0       4.865  -1.178  -1.940  0.00  0.00    +0.000 N 
ATOM     41 3H10 UNK     0       4.664  -0.605  -2.794  0.00  0.00    +0.000 HD
ATOM     42  C53 UNK     0       6.142  -1.031  -1.290  0.00  0.00    +0.000 C 
ATOM     43  O14 UNK     0       6.501  -1.856  -0.407  0.00  0.00    +0.000 OA
BRANCH  42  44
ATOM     44  C56 UNK     0       7.061   0.063  -1.673  0.00  0.00    +0.000 A 
ATOM     45  C59 UNK     0       6.567   1.307  -2.099  0.00  0.00    +0.000 A 
ATOM     46  C61 UNK     0       7.447   2.341  -2.432  0.00  0.00    +0.000 A 
ATOM     47  C62 UNK     0       8.825   2.142  -2.354  0.00  0.00    +0.000 A 
ATOM     48  C60 UNK     0       9.328   0.908  -1.940  0.00  0.00    +0.000 A 
ATOM     49  C58 UNK     0       8.452  -0.125  -1.592  0.00  0.00    +0.000 A 
ENDBRANCH  42  44
ENDBRANCH  33  40
ENDBRANCH  30  33
ENDBRANCH  28  30
ENDBRANCH  27  28
ENDBRANCH  18  27
BRANCH  17  50
ATOM     50  O6  UNK     0      -2.201   1.485   4.423  0.00  0.00    +0.000 OA
BRANCH  50  51
ATOM     51  C39 UNK     0      -1.946   2.224   5.586  0.00  0.00    +0.000 C 
ATOM     52  C43 UNK     0      -3.034   2.430   6.574  0.00  0.00    +0.000 C 
ATOM     53  O11 UNK     0      -0.790   2.661   5.833  0.00  0.00    +0.000 OA
ENDBRANCH  50  51
ENDBRANCH  17  50
BRANCH   7  54
ATOM     54  O3  UNK     0      -3.442   1.036  -1.009  0.00  0.00    +0.000 OA
BRANCH  54  55
ATOM     55  C37 UNK     0      -4.666   1.574  -1.432  0.00  0.00    +0.000 C 
ATOM     56  O10 UNK     0      -5.593   1.787  -0.605  0.00  0.00    +0.000 OA
BRANCH  55  57
ATOM     57  C41 UNK     0      -4.855   1.891  -2.862  0.00  0.00    +0.000 A 
ATOM     58  C45 UNK     0      -6.120   2.238  -3.370  0.00  0.00    +0.000 A 
ATOM     59  C48 UNK     0      -6.269   2.542  -4.729  0.00  0.00    +0.000 A 
ATOM     60  C49 UNK     0      -5.160   2.543  -5.576  0.00  0.00    +0.000 A 
ATOM     61  C47 UNK     0      -3.899   2.202  -5.081  0.00  0.00    +0.000 A 
ATOM     62  C44 UNK     0      -3.748   1.867  -3.735  0.00  0.00    +0.000 A 
ENDBRANCH  55  57
ENDBRANCH  54  55
ENDBRANCH   7  54
BRANCH   4  63
ATOM     63  O2  UNK     0      -2.036  -1.095  -1.589  0.00  0.00    +0.000 OA
BRANCH  63  64
ATOM     64  C36 UNK     0      -2.136  -1.702  -2.856  0.00  0.00    +0.000 C 
ATOM     65  O9  UNK     0      -2.882  -2.703  -3.060  0.00  0.00    +0.000 OA
ATOM     66  C38 UNK     0      -1.323  -1.165  -3.982  0.00  0.00    +0.000 C 
ENDBRANCH  63  64
ENDBRANCH   4  63
TORSDOF 17
