REMARK  Name = C:\Users\Maximilian\Desktop\Conformers\converted_pdb\conformers_pdb\Paclitaxel_conf_74.pdb
REMARK  23 active torsions:
REMARK  status: ('A' for Active; 'I' for Inactive)
REMARK    1  A    between atoms: C17_4  and  O2_61
REMARK    2  A    between atoms: C18_5  and  C29_16
REMARK    3  A    between atoms: C20_7  and  O3_52
REMARK    4  A    between atoms: C21_8  and  O4_46
REMARK    5  A    between atoms: C22_9  and  O5_65
REMARK    6  A    between atoms: C24_11  and  C33_20
REMARK    7  A    between atoms: C24_11  and  C34_21
REMARK    8  A    between atoms: C30_17  and  O6_48
REMARK    9  A    between atoms: C31_18  and  O8_23
REMARK   10  A    between atoms: C32_19  and  C35_22
REMARK   11  A    between atoms: O8_23  and  C40_24
REMARK   12  A    between atoms: C40_24  and  C42_26
REMARK   13  A    between atoms: C42_26  and  O13_27
REMARK   14  A    between atoms: C42_26  and  C46_29
REMARK   15  A    between atoms: C46_29  and  N15_30
REMARK   16  A    between atoms: C46_29  and  C50_40
REMARK   17  A    between atoms: C53_32  and  C56_34
REMARK   18  A    between atoms: O6_48  and  C39_49
REMARK   19  A    between atoms: C39_49  and  C43_50
REMARK   20  A    between atoms: O3_52  and  C37_53
REMARK   21  A    between atoms: C37_53  and  C41_55
REMARK   22  A    between atoms: O2_61  and  C36_62
REMARK   23  A    between atoms: C36_62  and  C38_64
REMARK                            x       y       z     vdW  Elec       q    Type
REMARK                         _______ _______ _______ _____ _____    ______ ____
ROOT
ATOM      1  O1  UNK     0      -5.848   2.448  -0.286  0.00  0.00    +0.000 OA
ATOM      2  O7  UNK     0      -0.069   2.283  -0.824  0.00  0.00    +0.000 OA
ATOM      3  C16 UNK     0      -2.833   0.985  -0.472  0.00  0.00    +0.000 C 
ATOM      4  C17 UNK     0      -4.183   1.265   0.304  0.00  0.00    +0.000 C 
ATOM      5  C18 UNK     0      -2.366   2.193  -1.387  0.00  0.00    +0.000 C 
ATOM      6  C19 UNK     0      -4.690   2.700   0.483  0.00  0.00    +0.000 C 
ATOM      7  C20 UNK     0      -2.823  -0.506  -1.082  0.00  0.00    +0.000 C 
ATOM      8  C21 UNK     0      -1.473  -1.356  -1.377  0.00  0.00    +0.000 C 
ATOM      9  C22 UNK     0      -2.461   3.503  -0.523  0.00  0.00    +0.000 C 
ATOM     10  C23 UNK     0      -3.887   3.872  -0.104  0.00  0.00    +0.000 C 
ATOM     11  C24 UNK     0      -0.822  -1.153  -2.821  0.00  0.00    +0.000 C 
ATOM     12  C25 UNK     0      -5.455   1.113  -0.517  0.00  0.00    +0.000 C 
ATOM     13  C26 UNK     0      -0.866   2.020  -1.718  0.00  0.00    +0.000 C 
ATOM     14  C27 UNK     0      -0.394  -1.166  -0.234  0.00  0.00    +0.000 C 
ATOM     15  C28 UNK     0       0.169   0.021  -2.741  0.00  0.00    +0.000 C 
ATOM     16  C29 UNK     0      -3.238   2.408  -2.657  0.00  0.00    +0.000 C 
ATOM     17  C30 UNK     0      -0.242   1.474  -2.998  0.00  0.00    +0.000 C 
ATOM     18  C31 UNK     0       1.093  -1.024  -0.670  0.00  0.00    +0.000 C 
ATOM     19  C32 UNK     0       1.236  -0.150  -1.909  0.00  0.00    +0.000 C 
ATOM     20  C33 UNK     0      -1.854  -1.039  -3.981  0.00  0.00    +0.000 C 
ATOM     21  C34 UNK     0      -0.008  -2.431  -3.256  0.00  0.00    +0.000 C 
ATOM     22  C35 UNK     0       2.489   0.688  -2.062  0.00  0.00    +0.000 C 
ENDROOT
BRANCH   8  23
ATOM     23  O4  UNK     0      -1.830  -2.724  -1.293  0.00  0.00    +0.000 OA
ATOM     24  H84 UNK     0      -2.518  -2.921  -1.979  0.00  0.00    +0.000 HD
ENDBRANCH   8  23
BRANCH   9  25
ATOM     25  O5  UNK     0      -1.896   4.585  -1.224  0.00  0.00    +0.000 OA
ATOM     26  H85 UNK     0      -1.666   5.276  -0.549  0.00  0.00    +0.000 HD
ENDBRANCH   9  25
BRANCH  18  27
ATOM     27  O8  UNK     0       1.830  -0.415   0.393  0.00  0.00    +0.000 OA
BRANCH  27  28
ATOM     28  C40 UNK     0       2.238  -1.084   1.553  0.00  0.00    +0.000 C 
ATOM     29  O12 UNK     0       1.853  -2.260   1.791  0.00  0.00    +0.000 OA
BRANCH  28  30
ATOM     30  C42 UNK     0       3.181  -0.393   2.493  0.00  0.00    +0.000 C 
BRANCH  30  31
ATOM     31  O13 UNK     0       2.631   0.859   2.816  0.00  0.00    +0.000 OA
ATOM     32 1H10 UNK     0       2.807   1.021   3.780  0.00  0.00    +0.000 HD
ENDBRANCH  30  31
BRANCH  30  33
ATOM     33  C46 UNK     0       4.562  -0.200   1.819  0.00  0.00    +0.000 C 
BRANCH  33  34
ATOM     34  C50 UNK     0       5.220  -1.542   1.538  0.00  0.00    +0.000 A 
ATOM     35  C52 UNK     0       5.159  -2.105   0.251  0.00  0.00    +0.000 A 
ATOM     36  C55 UNK     0       5.741  -3.350  -0.004  0.00  0.00    +0.000 A 
ATOM     37  C57 UNK     0       6.384  -4.046   1.019  0.00  0.00    +0.000 A 
ATOM     38  C54 UNK     0       6.448  -3.501   2.305  0.00  0.00    +0.000 A 
ATOM     39  C51 UNK     0       5.859  -2.261   2.568  0.00  0.00    +0.000 A 
ENDBRANCH  33  34
BRANCH  33  40
ATOM     40  N15 UNK     0       5.446   0.627   2.652  0.00  0.00    +0.000 N 
ATOM     41 3H10 UNK     0       5.211   0.753   3.666  0.00  0.00    +0.000 HD
ATOM     42  C53 UNK     0       6.611   1.272   2.107  0.00  0.00    +0.000 C 
ATOM     43  O14 UNK     0       6.820   1.231   0.862  0.00  0.00    +0.000 OA
BRANCH  42  44
ATOM     44  C56 UNK     0       7.555   2.015   2.978  0.00  0.00    +0.000 A 
ATOM     45  C59 UNK     0       8.339   3.050   2.436  0.00  0.00    +0.000 A 
ATOM     46  C61 UNK     0       9.226   3.768   3.245  0.00  0.00    +0.000 A 
ATOM     47  C62 UNK     0       9.348   3.452   4.600  0.00  0.00    +0.000 A 
ATOM     48  C60 UNK     0       8.593   2.413   5.146  0.00  0.00    +0.000 A 
ATOM     49  C58 UNK     0       7.699   1.695   4.343  0.00  0.00    +0.000 A 
ENDBRANCH  42  44
ENDBRANCH  33  40
ENDBRANCH  30  33
ENDBRANCH  28  30
ENDBRANCH  27  28
ENDBRANCH  18  27
BRANCH  17  50
ATOM     50  O6  UNK     0      -1.041   1.660  -4.162  0.00  0.00    +0.000 OA
BRANCH  50  51
ATOM     51  C39 UNK     0      -0.538   1.556  -5.463  0.00  0.00    +0.000 C 
ATOM     52  C43 UNK     0      -1.443   1.819  -6.620  0.00  0.00    +0.000 C 
ATOM     53  O11 UNK     0       0.640   1.159  -5.667  0.00  0.00    +0.000 OA
ENDBRANCH  50  51
ENDBRANCH  17  50
BRANCH   7  54
ATOM     54  O3  UNK     0      -3.614  -1.324  -0.203  0.00  0.00    +0.000 OA
BRANCH  54  55
ATOM     55  C37 UNK     0      -4.737  -2.072  -0.590  0.00  0.00    +0.000 C 
ATOM     56  O10 UNK     0      -5.148  -2.042  -1.782  0.00  0.00    +0.000 OA
BRANCH  55  57
ATOM     57  C41 UNK     0      -5.447  -2.888   0.415  0.00  0.00    +0.000 A 
ATOM     58  C45 UNK     0      -6.709  -3.444   0.129  0.00  0.00    +0.000 A 
ATOM     59  C48 UNK     0      -7.381  -4.199   1.096  0.00  0.00    +0.000 A 
ATOM     60  C49 UNK     0      -6.809  -4.401   2.353  0.00  0.00    +0.000 A 
ATOM     61  C47 UNK     0      -5.552  -3.863   2.642  0.00  0.00    +0.000 A 
ATOM     62  C44 UNK     0      -4.872  -3.109   1.680  0.00  0.00    +0.000 A 
ENDBRANCH  55  57
ENDBRANCH  54  55
ENDBRANCH   7  54
BRANCH   4  63
ATOM     63  O2  UNK     0      -4.204   0.531   1.549  0.00  0.00    +0.000 OA
BRANCH  63  64
ATOM     64  C36 UNK     0      -5.250   0.436   2.485  0.00  0.00    +0.000 C 
ATOM     65  O9  UNK     0      -6.365   0.991   2.294  0.00  0.00    +0.000 OA
ATOM     66  C38 UNK     0      -5.023  -0.320   3.749  0.00  0.00    +0.000 C 
ENDBRANCH  63  64
ENDBRANCH   4  63
TORSDOF 17
