REMARK  Name = C:\Users\Maximilian\Desktop\Conformers\converted_pdb\conformers_pdb\Paclitaxel_conf_84.pdb
REMARK  23 active torsions:
REMARK  status: ('A' for Active; 'I' for Inactive)
REMARK    1  A    between atoms: C17_4  and  O2_61
REMARK    2  A    between atoms: C18_5  and  C29_16
REMARK    3  A    between atoms: C20_7  and  O3_52
REMARK    4  A    between atoms: C21_8  and  O4_46
REMARK    5  A    between atoms: C22_9  and  O5_65
REMARK    6  A    between atoms: C24_11  and  C33_20
REMARK    7  A    between atoms: C24_11  and  C34_21
REMARK    8  A    between atoms: C30_17  and  O6_48
REMARK    9  A    between atoms: C31_18  and  O8_23
REMARK   10  A    between atoms: C32_19  and  C35_22
REMARK   11  A    between atoms: O8_23  and  C40_24
REMARK   12  A    between atoms: C40_24  and  C42_26
REMARK   13  A    between atoms: C42_26  and  O13_27
REMARK   14  A    between atoms: C42_26  and  C46_29
REMARK   15  A    between atoms: C46_29  and  N15_30
REMARK   16  A    between atoms: C46_29  and  C50_40
REMARK   17  A    between atoms: C53_32  and  C56_34
REMARK   18  A    between atoms: O6_48  and  C39_49
REMARK   19  A    between atoms: C39_49  and  C43_50
REMARK   20  A    between atoms: O3_52  and  C37_53
REMARK   21  A    between atoms: C37_53  and  C41_55
REMARK   22  A    between atoms: O2_61  and  C36_62
REMARK   23  A    between atoms: C36_62  and  C38_64
REMARK                            x       y       z     vdW  Elec       q    Type
REMARK                         _______ _______ _______ _____ _____    ______ ____
ROOT
ATOM      1  O1  UNK     0      -4.864  -0.935  -2.396  0.00  0.00    +0.000 OA
ATOM      2  O7  UNK     0      -3.775  -2.791   3.124  0.00  0.00    +0.000 OA
ATOM      3  C16 UNK     0      -2.909  -0.585   0.319  0.00  0.00    +0.000 C 
ATOM      4  C17 UNK     0      -3.201  -0.333  -1.216  0.00  0.00    +0.000 C 
ATOM      5  C18 UNK     0      -3.552  -1.927   0.899  0.00  0.00    +0.000 C 
ATOM      6  C19 UNK     0      -3.609  -1.517  -2.102  0.00  0.00    +0.000 C 
ATOM      7  C20 UNK     0      -3.064   0.732   1.208  0.00  0.00    +0.000 C 
ATOM      8  C21 UNK     0      -1.800   1.204   2.069  0.00  0.00    +0.000 C 
ATOM      9  C22 UNK     0      -3.167  -3.074  -0.089  0.00  0.00    +0.000 C 
ATOM     10  C23 UNK     0      -3.803  -2.914  -1.475  0.00  0.00    +0.000 C 
ATOM     11  C24 UNK     0      -1.394   0.201   3.213  0.00  0.00    +0.000 C 
ATOM     12  C25 UNK     0      -4.582   0.187  -1.590  0.00  0.00    +0.000 C 
ATOM     13  C26 UNK     0      -2.997  -2.340   2.288  0.00  0.00    +0.000 C 
ATOM     14  C27 UNK     0      -0.563   1.485   1.120  0.00  0.00    +0.000 C 
ATOM     15  C28 UNK     0      -0.834  -1.053   2.514  0.00  0.00    +0.000 C 
ATOM     16  C29 UNK     0      -5.110  -1.810   1.022  0.00  0.00    +0.000 C 
ATOM     17  C30 UNK     0      -1.518  -2.407   2.629  0.00  0.00    +0.000 C 
ATOM     18  C31 UNK     0       0.636   0.495   1.215  0.00  0.00    +0.000 C 
ATOM     19  C32 UNK     0       0.229  -0.895   1.669  0.00  0.00    +0.000 C 
ATOM     20  C33 UNK     0      -2.581  -0.064   4.197  0.00  0.00    +0.000 C 
ATOM     21  C34 UNK     0      -0.267   0.808   4.130  0.00  0.00    +0.000 C 
ATOM     22  C35 UNK     0       1.038  -2.076   1.170  0.00  0.00    +0.000 C 
ENDROOT
BRANCH   8  23
ATOM     23  O4  UNK     0      -2.160   2.408   2.721  0.00  0.00    +0.000 OA
ATOM     24  H84 UNK     0      -2.159   3.154   2.062  0.00  0.00    +0.000 HD
ENDBRANCH   8  23
BRANCH   9  25
ATOM     25  O5  UNK     0      -3.457  -4.351   0.433  0.00  0.00    +0.000 OA
ATOM     26  H85 UNK     0      -4.442  -4.462   0.468  0.00  0.00    +0.000 HD
ENDBRANCH   9  25
BRANCH  18  27
ATOM     27  O8  UNK     0       1.285   0.412  -0.056  0.00  0.00    +0.000 OA
BRANCH  27  28
ATOM     28  C40 UNK     0       2.134   1.404  -0.559  0.00  0.00    +0.000 C 
ATOM     29  O12 UNK     0       2.197   2.540  -0.009  0.00  0.00    +0.000 OA
BRANCH  28  30
ATOM     30  C42 UNK     0       3.076   1.064  -1.683  0.00  0.00    +0.000 C 
BRANCH  30  31
ATOM     31  O13 UNK     0       2.371   0.456  -2.735  0.00  0.00    +0.000 OA
ATOM     32 1H10 UNK     0       2.045  -0.429  -2.415  0.00  0.00    +0.000 HD
ENDBRANCH  30  31
BRANCH  30  33
ATOM     33  C46 UNK     0       4.224   0.148  -1.181  0.00  0.00    +0.000 C 
BRANCH  33  34
ATOM     34  C50 UNK     0       5.058   0.852  -0.127  0.00  0.00    +0.000 A 
ATOM     35  C52 UNK     0       5.929   1.899  -0.483  0.00  0.00    +0.000 A 
ATOM     36  C55 UNK     0       6.669   2.566   0.500  0.00  0.00    +0.000 A 
ATOM     37  C57 UNK     0       6.541   2.201   1.843  0.00  0.00    +0.000 A 
ATOM     38  C54 UNK     0       5.669   1.170   2.207  0.00  0.00    +0.000 A 
ATOM     39  C51 UNK     0       4.927   0.500   1.229  0.00  0.00    +0.000 A 
ENDBRANCH  33  34
BRANCH  33  40
ATOM     40  N15 UNK     0       5.083  -0.275  -2.292  0.00  0.00    +0.000 N 
ATOM     41 3H10 UNK     0       4.965   0.185  -3.225  0.00  0.00    +0.000 HD
ATOM     42  C53 UNK     0       6.048  -1.331  -2.140  0.00  0.00    +0.000 C 
ATOM     43  O14 UNK     0       5.981  -2.082  -1.130  0.00  0.00    +0.000 OA
BRANCH  42  44
ATOM     44  C56 UNK     0       7.114  -1.565  -3.149  0.00  0.00    +0.000 A 
ATOM     45  C59 UNK     0       7.459  -0.578  -4.095  0.00  0.00    +0.000 A 
ATOM     46  C61 UNK     0       8.466  -0.820  -5.036  0.00  0.00    +0.000 A 
ATOM     47  C62 UNK     0       9.147  -2.037  -5.036  0.00  0.00    +0.000 A 
ATOM     48  C60 UNK     0       8.833  -3.014  -4.091  0.00  0.00    +0.000 A 
ATOM     49  C58 UNK     0       7.822  -2.783  -3.154  0.00  0.00    +0.000 A 
ENDBRANCH  42  44
ENDBRANCH  33  40
ENDBRANCH  30  33
ENDBRANCH  28  30
ENDBRANCH  27  28
ENDBRANCH  18  27
BRANCH  17  50
ATOM     50  O6  UNK     0      -1.306  -2.904   3.953  0.00  0.00    +0.000 OA
BRANCH  50  51
ATOM     51  C39 UNK     0      -1.309  -4.266   4.286  0.00  0.00    +0.000 C 
ATOM     52  C43 UNK     0      -1.105  -4.672   5.705  0.00  0.00    +0.000 C 
ATOM     53  O11 UNK     0      -1.410  -5.152   3.391  0.00  0.00    +0.000 OA
ENDBRANCH  50  51
ENDBRANCH  17  50
BRANCH   7  54
ATOM     54  O3  UNK     0      -3.444   1.829   0.364  0.00  0.00    +0.000 OA
BRANCH  54  55
ATOM     55  C37 UNK     0      -4.450   2.761   0.655  0.00  0.00    +0.000 C 
ATOM     56  O10 UNK     0      -5.060   2.719   1.757  0.00  0.00    +0.000 OA
BRANCH  55  57
ATOM     57  C41 UNK     0      -4.800   3.788  -0.347  0.00  0.00    +0.000 A 
ATOM     58  C45 UNK     0      -5.929   4.609  -0.171  0.00  0.00    +0.000 A 
ATOM     59  C48 UNK     0      -6.271   5.557  -1.140  0.00  0.00    +0.000 A 
ATOM     60  C49 UNK     0      -5.492   5.696  -2.291  0.00  0.00    +0.000 A 
ATOM     61  C47 UNK     0      -4.364   4.893  -2.471  0.00  0.00    +0.000 A 
ATOM     62  C44 UNK     0      -4.018   3.943  -1.506  0.00  0.00    +0.000 A 
ENDBRANCH  55  57
ENDBRANCH  54  55
ENDBRANCH   7  54
BRANCH   4  63
ATOM     63  O2  UNK     0      -2.136   0.452  -1.795  0.00  0.00    +0.000 OA
BRANCH  63  64
ATOM     64  C36 UNK     0      -2.036   0.954  -3.108  0.00  0.00    +0.000 C 
ATOM     65  O9  UNK     0      -2.908   0.705  -3.983  0.00  0.00    +0.000 OA
ATOM     66  C38 UNK     0      -0.898   1.852  -3.451  0.00  0.00    +0.000 C 
ENDBRANCH  63  64
ENDBRANCH   4  63
TORSDOF 17
