REMARK  Name = C:\Users\Maximilian\Desktop\Conformers\converted_pdb\conformers_pdb\Paclitaxel_conf_50.pdb
REMARK  23 active torsions:
REMARK  status: ('A' for Active; 'I' for Inactive)
REMARK    1  A    between atoms: C17_4  and  O2_61
REMARK    2  A    between atoms: C18_5  and  C29_16
REMARK    3  A    between atoms: C20_7  and  O3_52
REMARK    4  A    between atoms: C21_8  and  O4_46
REMARK    5  A    between atoms: C22_9  and  O5_65
REMARK    6  A    between atoms: C24_11  and  C33_20
REMARK    7  A    between atoms: C24_11  and  C34_21
REMARK    8  A    between atoms: C30_17  and  O6_48
REMARK    9  A    between atoms: C31_18  and  O8_23
REMARK   10  A    between atoms: C32_19  and  C35_22
REMARK   11  A    between atoms: O8_23  and  C40_24
REMARK   12  A    between atoms: C40_24  and  C42_26
REMARK   13  A    between atoms: C42_26  and  O13_27
REMARK   14  A    between atoms: C42_26  and  C46_29
REMARK   15  A    between atoms: C46_29  and  N15_30
REMARK   16  A    between atoms: C46_29  and  C50_40
REMARK   17  A    between atoms: C53_32  and  C56_34
REMARK   18  A    between atoms: O6_48  and  C39_49
REMARK   19  A    between atoms: C39_49  and  C43_50
REMARK   20  A    between atoms: O3_52  and  C37_53
REMARK   21  A    between atoms: C37_53  and  C41_55
REMARK   22  A    between atoms: O2_61  and  C36_62
REMARK   23  A    between atoms: C36_62  and  C38_64
REMARK                            x       y       z     vdW  Elec       q    Type
REMARK                         _______ _______ _______ _____ _____    ______ ____
ROOT
ATOM      1  O1  UNK     0      -4.351  -1.770  -2.282  0.00  0.00    +0.000 OA
ATOM      2  O7  UNK     0      -3.615  -2.288   3.545  0.00  0.00    +0.000 OA
ATOM      3  C16 UNK     0      -2.693  -0.677   0.414  0.00  0.00    +0.000 C 
ATOM      4  C17 UNK     0      -2.889  -0.725  -1.150  0.00  0.00    +0.000 C 
ATOM      5  C18 UNK     0      -3.236  -1.954   1.197  0.00  0.00    +0.000 C 
ATOM      6  C19 UNK     0      -3.056  -2.094  -1.818  0.00  0.00    +0.000 C 
ATOM      7  C20 UNK     0      -3.045   0.740   1.050  0.00  0.00    +0.000 C 
ATOM      8  C21 UNK     0      -1.885   1.517   1.831  0.00  0.00    +0.000 C 
ATOM      9  C22 UNK     0      -2.635  -3.210   0.501  0.00  0.00    +0.000 C 
ATOM     10  C23 UNK     0      -3.103  -3.376  -0.953  0.00  0.00    +0.000 C 
ATOM     11  C24 UNK     0      -1.449   0.813   3.167  0.00  0.00    +0.000 C 
ATOM     12  C25 UNK     0      -4.292  -0.491  -1.690  0.00  0.00    +0.000 C 
ATOM     13  C26 UNK     0      -2.789  -1.996   2.687  0.00  0.00    +0.000 C 
ATOM     14  C27 UNK     0      -0.629   1.742   0.902  0.00  0.00    +0.000 C 
ATOM     15  C28 UNK     0      -0.753  -0.503   2.775  0.00  0.00    +0.000 C 
ATOM     16  C29 UNK     0      -4.799  -2.032   1.163  0.00  0.00    +0.000 C 
ATOM     17  C30 UNK     0      -1.344  -1.857   3.148  0.00  0.00    +0.000 C 
ATOM     18  C31 UNK     0       0.607   0.811   1.119  0.00  0.00    +0.000 C 
ATOM     19  C32 UNK     0       0.323  -0.443   1.934  0.00  0.00    +0.000 C 
ATOM     20  C33 UNK     0      -2.646   0.659   4.163  0.00  0.00    +0.000 C 
ATOM     21  C34 UNK     0      -0.440   1.692   3.978  0.00  0.00    +0.000 C 
ATOM     22  C35 UNK     0       1.267  -1.618   1.769  0.00  0.00    +0.000 C 
ENDROOT
BRANCH   8  23
ATOM     23  O4  UNK     0      -2.401   2.782   2.201  0.00  0.00    +0.000 OA
ATOM     24  H84 UNK     0      -2.457   3.361   1.397  0.00  0.00    +0.000 HD
ENDBRANCH   8  23
BRANCH   9  25
ATOM     25  O5  UNK     0      -2.963  -4.372   1.224  0.00  0.00    +0.000 OA
ATOM     26  H85 UNK     0      -2.306  -5.070   0.967  0.00  0.00    +0.000 HD
ENDBRANCH   9  25
BRANCH  18  27
ATOM     27  O8  UNK     0       1.153   0.434  -0.148  0.00  0.00    +0.000 OA
BRANCH  27  28
ATOM     28  C40 UNK     0       1.908   1.301  -0.945  0.00  0.00    +0.000 C 
ATOM     29  O12 UNK     0       1.904   2.544  -0.726  0.00  0.00    +0.000 OA
BRANCH  28  30
ATOM     30  C42 UNK     0       2.805   0.735  -2.007  0.00  0.00    +0.000 C 
BRANCH  30  31
ATOM     31  O13 UNK     0       2.067  -0.193  -2.761  0.00  0.00    +0.000 OA
ATOM     32 1H10 UNK     0       2.384  -0.132  -3.699  0.00  0.00    +0.000 HD
ENDBRANCH  30  31
BRANCH  30  33
ATOM     33  C46 UNK     0       4.024   0.030  -1.363  0.00  0.00    +0.000 C 
BRANCH  33  34
ATOM     34  C50 UNK     0       4.815   0.987  -0.491  0.00  0.00    +0.000 A 
ATOM     35  C52 UNK     0       5.593   2.007  -1.068  0.00  0.00    +0.000 A 
ATOM     36  C55 UNK     0       6.285   2.913  -0.257  0.00  0.00    +0.000 A 
ATOM     37  C57 UNK     0       6.206   2.810   1.134  0.00  0.00    +0.000 A 
ATOM     38  C54 UNK     0       5.429   1.806   1.717  0.00  0.00    +0.000 A 
ATOM     39  C51 UNK     0       4.738   0.897   0.910  0.00  0.00    +0.000 A 
ENDBRANCH  33  34
BRANCH  33  40
ATOM     40  N15 UNK     0       4.909  -0.541  -2.386  0.00  0.00    +0.000 N 
ATOM     41 3H10 UNK     0       4.823  -0.216  -3.375  0.00  0.00    +0.000 HD
ATOM     42  C53 UNK     0       5.927  -1.498  -2.047  0.00  0.00    +0.000 C 
ATOM     43  O14 UNK     0       5.860  -2.111  -0.947  0.00  0.00    +0.000 OA
BRANCH  42  44
ATOM     44  C56 UNK     0       7.050  -1.790  -2.970  0.00  0.00    +0.000 A 
ATOM     45  C59 UNK     0       7.764  -2.998  -2.850  0.00  0.00    +0.000 A 
ATOM     46  C61 UNK     0       8.847  -3.271  -3.693  0.00  0.00    +0.000 A 
ATOM     47  C62 UNK     0       9.231  -2.340  -4.659  0.00  0.00    +0.000 A 
ATOM     48  C60 UNK     0       8.537  -1.134  -4.784  0.00  0.00    +0.000 A 
ATOM     49  C58 UNK     0       7.453  -0.856  -3.945  0.00  0.00    +0.000 A 
ENDBRANCH  42  44
ENDBRANCH  33  40
ENDBRANCH  30  33
ENDBRANCH  28  30
ENDBRANCH  27  28
ENDBRANCH  18  27
BRANCH  17  50
ATOM     50  O6  UNK     0      -1.216  -2.028   4.563  0.00  0.00    +0.000 OA
BRANCH  50  51
ATOM     51  C39 UNK     0      -1.302  -3.268   5.210  0.00  0.00    +0.000 C 
ATOM     52  C43 UNK     0      -1.097  -3.344   6.685  0.00  0.00    +0.000 C 
ATOM     53  O11 UNK     0      -1.506  -4.327   4.556  0.00  0.00    +0.000 OA
ENDBRANCH  50  51
ENDBRANCH  17  50
BRANCH   7  54
ATOM     54  O3  UNK     0      -3.566   1.610   0.035  0.00  0.00    +0.000 OA
BRANCH  54  55
ATOM     55  C37 UNK     0      -4.722   2.394   0.173  0.00  0.00    +0.000 C 
ATOM     56  O10 UNK     0      -5.346   2.425   1.272  0.00  0.00    +0.000 OA
BRANCH  55  57
ATOM     57  C41 UNK     0      -5.215   3.174  -0.982  0.00  0.00    +0.000 A 
ATOM     58  C45 UNK     0      -4.452   3.252  -2.165  0.00  0.00    +0.000 A 
ATOM     59  C48 UNK     0      -4.927   3.973  -3.265  0.00  0.00    +0.000 A 
ATOM     60  C49 UNK     0      -6.164   4.619  -3.199  0.00  0.00    +0.000 A 
ATOM     61  C47 UNK     0      -6.931   4.549  -2.032  0.00  0.00    +0.000 A 
ATOM     62  C44 UNK     0      -6.461   3.830  -0.927  0.00  0.00    +0.000 A 
ENDBRANCH  55  57
ENDBRANCH  54  55
ENDBRANCH   7  54
BRANCH   4  63
ATOM     63  O2  UNK     0      -1.897   0.098  -1.796  0.00  0.00    +0.000 OA
BRANCH  63  64
ATOM     64  C36 UNK     0      -1.778   0.410  -3.164  0.00  0.00    +0.000 C 
ATOM     65  O9  UNK     0      -2.482  -0.166  -4.039  0.00  0.00    +0.000 OA
ATOM     66  C38 UNK     0      -0.789   1.438  -3.591  0.00  0.00    +0.000 C 
ENDBRANCH  63  64
ENDBRANCH   4  63
TORSDOF 17
