REMARK  Name = C:\Users\Maximilian\Desktop\Conformers\converted_pdb\conformers_pdb\Paclitaxel_conf_52.pdb
REMARK  23 active torsions:
REMARK  status: ('A' for Active; 'I' for Inactive)
REMARK    1  A    between atoms: C17_4  and  O2_61
REMARK    2  A    between atoms: C18_5  and  C29_16
REMARK    3  A    between atoms: C20_7  and  O3_52
REMARK    4  A    between atoms: C21_8  and  O4_46
REMARK    5  A    between atoms: C22_9  and  O5_65
REMARK    6  A    between atoms: C24_11  and  C33_20
REMARK    7  A    between atoms: C24_11  and  C34_21
REMARK    8  A    between atoms: C30_17  and  O6_48
REMARK    9  A    between atoms: C31_18  and  O8_23
REMARK   10  A    between atoms: C32_19  and  C35_22
REMARK   11  A    between atoms: O8_23  and  C40_24
REMARK   12  A    between atoms: C40_24  and  C42_26
REMARK   13  A    between atoms: C42_26  and  O13_27
REMARK   14  A    between atoms: C42_26  and  C46_29
REMARK   15  A    between atoms: C46_29  and  N15_30
REMARK   16  A    between atoms: C46_29  and  C50_40
REMARK   17  A    between atoms: C53_32  and  C56_34
REMARK   18  A    between atoms: O6_48  and  C39_49
REMARK   19  A    between atoms: C39_49  and  C43_50
REMARK   20  A    between atoms: O3_52  and  C37_53
REMARK   21  A    between atoms: C37_53  and  C41_55
REMARK   22  A    between atoms: O2_61  and  C36_62
REMARK   23  A    between atoms: C36_62  and  C38_64
REMARK                            x       y       z     vdW  Elec       q    Type
REMARK                         _______ _______ _______ _____ _____    ______ ____
ROOT
ATOM      1  O1  UNK     0      -4.868   0.936  -2.827  0.00  0.00    +0.000 OA
ATOM      2  O7  UNK     0      -4.226  -3.716   0.808  0.00  0.00    +0.000 OA
ATOM      3  C16 UNK     0      -3.059  -0.431  -0.338  0.00  0.00    +0.000 C 
ATOM      4  C17 UNK     0      -3.228   0.617  -1.512  0.00  0.00    +0.000 C 
ATOM      5  C18 UNK     0      -3.835  -1.804  -0.577  0.00  0.00    +0.000 C 
ATOM      6  C19 UNK     0      -3.711   0.138  -2.891  0.00  0.00    +0.000 C 
ATOM      7  C20 UNK     0      -3.197   0.247   1.105  0.00  0.00    +0.000 C 
ATOM      8  C21 UNK     0      -2.013   0.034   2.161  0.00  0.00    +0.000 C 
ATOM      9  C22 UNK     0      -3.526  -2.281  -2.028  0.00  0.00    +0.000 C 
ATOM     10  C23 UNK     0      -4.086  -1.339  -3.097  0.00  0.00    +0.000 C 
ATOM     11  C24 UNK     0      -1.783  -1.467   2.581  0.00  0.00    +0.000 C 
ATOM     12  C25 UNK     0      -4.512   1.434  -1.556  0.00  0.00    +0.000 C 
ATOM     13  C26 UNK     0      -3.380  -2.954   0.357  0.00  0.00    +0.000 C 
ATOM     14  C27 UNK     0      -0.670   0.667   1.603  0.00  0.00    +0.000 C 
ATOM     15  C28 UNK     0      -1.190  -2.168   1.340  0.00  0.00    +0.000 C 
ATOM     16  C29 UNK     0      -5.381  -1.636  -0.403  0.00  0.00    +0.000 C 
ATOM     17  C30 UNK     0      -1.921  -3.300   0.636  0.00  0.00    +0.000 C 
ATOM     18  C31 UNK     0       0.488  -0.319   1.299  0.00  0.00    +0.000 C 
ATOM     19  C32 UNK     0      -0.029  -1.660   0.810  0.00  0.00    +0.000 C 
ATOM     20  C33 UNK     0      -3.085  -2.100   3.164  0.00  0.00    +0.000 C 
ATOM     21  C34 UNK     0      -0.746  -1.585   3.759  0.00  0.00    +0.000 C 
ATOM     22  C35 UNK     0       0.796  -2.437  -0.194  0.00  0.00    +0.000 C 
ENDROOT
BRANCH   8  23
ATOM     23  O4  UNK     0      -2.378   0.711   3.347  0.00  0.00    +0.000 OA
ATOM     24  H84 UNK     0      -2.302   1.689   3.208  0.00  0.00    +0.000 HD
ENDBRANCH   8  23
BRANCH   9  25
ATOM     25  O5  UNK     0      -4.043  -3.572  -2.241  0.00  0.00    +0.000 OA
ATOM     26  H85 UNK     0      -3.641  -3.912  -3.084  0.00  0.00    +0.000 HD
ENDBRANCH   9  25
BRANCH  18  27
ATOM     27  O8  UNK     0       1.388   0.268   0.348  0.00  0.00    +0.000 OA
BRANCH  27  28
ATOM     28  C40 UNK     0       2.287   1.288   0.682  0.00  0.00    +0.000 C 
ATOM     29  O12 UNK     0       2.245   1.836   1.821  0.00  0.00    +0.000 OA
BRANCH  28  30
ATOM     30  C42 UNK     0       3.392   1.663  -0.266  0.00  0.00    +0.000 C 
BRANCH  30  31
ATOM     31  O13 UNK     0       2.837   1.958  -1.518  0.00  0.00    +0.000 OA
ATOM     32 1H10 UNK     0       2.542   2.907  -1.486  0.00  0.00    +0.000 HD
ENDBRANCH  30  31
BRANCH  30  33
ATOM     33  C46 UNK     0       4.398   0.504  -0.408  0.00  0.00    +0.000 C 
BRANCH  33  34
ATOM     34  C50 UNK     0       5.065   0.212   0.922  0.00  0.00    +0.000 A 
ATOM     35  C52 UNK     0       6.088   1.046   1.414  0.00  0.00    +0.000 A 
ATOM     36  C55 UNK     0       6.669   0.797   2.664  0.00  0.00    +0.000 A 
ATOM     37  C57 UNK     0       6.217  -0.274   3.442  0.00  0.00    +0.000 A 
ATOM     38  C54 UNK     0       5.194  -1.101   2.971  0.00  0.00    +0.000 A 
ATOM     39  C51 UNK     0       4.633  -0.867   1.711  0.00  0.00    +0.000 A 
ENDBRANCH  33  34
BRANCH  33  40
ATOM     40  N15 UNK     0       5.417   0.818  -1.419  0.00  0.00    +0.000 N 
ATOM     41 3H10 UNK     0       5.474   1.797  -1.793  0.00  0.00    +0.000 HD
ATOM     42  C53 UNK     0       6.340  -0.174  -1.892  0.00  0.00    +0.000 C 
ATOM     43  O14 UNK     0       6.158  -1.384  -1.577  0.00  0.00    +0.000 OA
BRANCH  42  44
ATOM     44  C56 UNK     0       7.481   0.185  -2.773  0.00  0.00    +0.000 A 
ATOM     45  C59 UNK     0       8.006   1.493  -2.802  0.00  0.00    +0.000 A 
ATOM     46  C61 UNK     0       9.089   1.802  -3.638  0.00  0.00    +0.000 A 
ATOM     47  C62 UNK     0       9.659   0.810  -4.436  0.00  0.00    +0.000 A 
ATOM     48  C60 UNK     0       9.156  -0.491  -4.404  0.00  0.00    +0.000 A 
ATOM     49  C58 UNK     0       8.077  -0.804  -3.577  0.00  0.00    +0.000 A 
ENDBRANCH  42  44
ENDBRANCH  33  40
ENDBRANCH  30  33
ENDBRANCH  28  30
ENDBRANCH  27  28
ENDBRANCH  18  27
BRANCH  17  50
ATOM     50  O6  UNK     0      -1.808  -4.472   1.447  0.00  0.00    +0.000 OA
BRANCH  50  51
ATOM     51  C39 UNK     0      -2.062  -5.768   0.985  0.00  0.00    +0.000 C 
ATOM     52  C43 UNK     0      -1.914  -6.918   1.926  0.00  0.00    +0.000 C 
ATOM     53  O11 UNK     0      -2.386  -5.975  -0.217  0.00  0.00    +0.000 OA
ENDBRANCH  50  51
ENDBRANCH  17  50
BRANCH   7  54
ATOM     54  O3  UNK     0      -3.362   1.664   0.949  0.00  0.00    +0.000 OA
BRANCH  54  55
ATOM     55  C37 UNK     0      -4.336   2.440   1.600  0.00  0.00    +0.000 C 
ATOM     56  O10 UNK     0      -5.138   1.907   2.412  0.00  0.00    +0.000 OA
BRANCH  55  57
ATOM     57  C41 UNK     0      -4.411   3.887   1.319  0.00  0.00    +0.000 A 
ATOM     58  C45 UNK     0      -3.456   4.499   0.484  0.00  0.00    +0.000 A 
ATOM     59  C48 UNK     0      -3.522   5.871   0.217  0.00  0.00    +0.000 A 
ATOM     60  C49 UNK     0      -4.545   6.646   0.769  0.00  0.00    +0.000 A 
ATOM     61  C47 UNK     0      -5.499   6.049   1.594  0.00  0.00    +0.000 A 
ATOM     62  C44 UNK     0      -5.441   4.676   1.865  0.00  0.00    +0.000 A 
ENDBRANCH  55  57
ENDBRANCH  54  55
ENDBRANCH   7  54
BRANCH   4  63
ATOM     63  O2  UNK     0      -2.036   1.418  -1.613  0.00  0.00    +0.000 OA
BRANCH  63  64
ATOM     64  C36 UNK     0      -1.724   2.388  -2.582  0.00  0.00    +0.000 C 
ATOM     65  O9  UNK     0      -2.624   3.022  -3.200  0.00  0.00    +0.000 OA
ATOM     66  C38 UNK     0      -0.293   2.597  -2.948  0.00  0.00    +0.000 C 
ENDBRANCH  63  64
ENDBRANCH   4  63
TORSDOF 17
