REMARK  Name = C:\Users\Maximilian\Desktop\Conformers\converted_pdb\conformers_pdb\Paclitaxel_conf_59.pdb
REMARK  23 active torsions:
REMARK  status: ('A' for Active; 'I' for Inactive)
REMARK    1  A    between atoms: C17_4  and  O2_61
REMARK    2  A    between atoms: C18_5  and  C29_16
REMARK    3  A    between atoms: C20_7  and  O3_52
REMARK    4  A    between atoms: C21_8  and  O4_46
REMARK    5  A    between atoms: C22_9  and  O5_65
REMARK    6  A    between atoms: C24_11  and  C33_20
REMARK    7  A    between atoms: C24_11  and  C34_21
REMARK    8  A    between atoms: C30_17  and  O6_48
REMARK    9  A    between atoms: C31_18  and  O8_23
REMARK   10  A    between atoms: C32_19  and  C35_22
REMARK   11  A    between atoms: O8_23  and  C40_24
REMARK   12  A    between atoms: C40_24  and  C42_26
REMARK   13  A    between atoms: C42_26  and  O13_27
REMARK   14  A    between atoms: C42_26  and  C46_29
REMARK   15  A    between atoms: C46_29  and  N15_30
REMARK   16  A    between atoms: C46_29  and  C50_40
REMARK   17  A    between atoms: C53_32  and  C56_34
REMARK   18  A    between atoms: O6_48  and  C39_49
REMARK   19  A    between atoms: C39_49  and  C43_50
REMARK   20  A    between atoms: O3_52  and  C37_53
REMARK   21  A    between atoms: C37_53  and  C41_55
REMARK   22  A    between atoms: O2_61  and  C36_62
REMARK   23  A    between atoms: C36_62  and  C38_64
REMARK                            x       y       z     vdW  Elec       q    Type
REMARK                         _______ _______ _______ _____ _____    ______ ____
ROOT
ATOM      1  O1  UNK     0      -4.414   0.696  -2.940  0.00  0.00    +0.000 OA
ATOM      2  O7  UNK     0      -5.068  -2.798   1.808  0.00  0.00    +0.000 OA
ATOM      3  C16 UNK     0      -2.997  -0.520  -0.147  0.00  0.00    +0.000 C 
ATOM      4  C17 UNK     0      -2.885   0.212  -1.543  0.00  0.00    +0.000 C 
ATOM      5  C18 UNK     0      -4.182  -1.582  -0.054  0.00  0.00    +0.000 C 
ATOM      6  C19 UNK     0      -3.555  -0.415  -2.773  0.00  0.00    +0.000 C 
ATOM      7  C20 UNK     0      -2.811   0.469   1.095  0.00  0.00    +0.000 C 
ATOM      8  C21 UNK     0      -1.657   0.136   2.155  0.00  0.00    +0.000 C 
ATOM      9  C22 UNK     0      -4.095  -2.480  -1.329  0.00  0.00    +0.000 C 
ATOM     10  C23 UNK     0      -4.376  -1.711  -2.624  0.00  0.00    +0.000 C 
ATOM     11  C24 UNK     0      -1.855  -1.220   2.949  0.00  0.00    +0.000 C 
ATOM     12  C25 UNK     0      -3.866   1.345  -1.813  0.00  0.00    +0.000 C 
ATOM     13  C26 UNK     0      -4.060  -2.532   1.164  0.00  0.00    +0.000 C 
ATOM     14  C27 UNK     0      -0.261   0.148   1.422  0.00  0.00    +0.000 C 
ATOM     15  C28 UNK     0      -1.650  -2.351   1.913  0.00  0.00    +0.000 C 
ATOM     16  C29 UNK     0      -5.578  -0.881   0.021  0.00  0.00    +0.000 C 
ATOM     17  C30 UNK     0      -2.787  -3.292   1.518  0.00  0.00    +0.000 C 
ATOM     18  C31 UNK     0       0.495  -1.204   1.337  0.00  0.00    +0.000 C 
ATOM     19  C32 UNK     0      -0.459  -2.387   1.231  0.00  0.00    +0.000 C 
ATOM     20  C33 UNK     0      -3.224  -1.263   3.705  0.00  0.00    +0.000 C 
ATOM     21  C34 UNK     0      -0.777  -1.380   4.086  0.00  0.00    +0.000 C 
ATOM     22  C35 UNK     0      -0.078  -3.567   0.357  0.00  0.00    +0.000 C 
ENDROOT
BRANCH   8  23
ATOM     23  O4  UNK     0      -1.611   1.194   3.093  0.00  0.00    +0.000 OA
ATOM     24  H84 UNK     0      -2.513   1.312   3.483  0.00  0.00    +0.000 HD
ENDBRANCH   8  23
BRANCH   9  25
ATOM     25  O5  UNK     0      -4.927  -3.615  -1.238  0.00  0.00    +0.000 OA
ATOM     26  H85 UNK     0      -5.868  -3.320  -1.338  0.00  0.00    +0.000 HD
ENDBRANCH   9  25
BRANCH  18  27
ATOM     27  O8  UNK     0       1.384  -1.137   0.217  0.00  0.00    +0.000 OA
BRANCH  27  28
ATOM     28  C40 UNK     0       2.715  -1.577   0.254  0.00  0.00    +0.000 C 
ATOM     29  O12 UNK     0       3.162  -2.203   1.256  0.00  0.00    +0.000 OA
BRANCH  28  30
ATOM     30  C42 UNK     0       3.635  -1.268  -0.894  0.00  0.00    +0.000 C 
BRANCH  30  31
ATOM     31  O13 UNK     0       4.355  -2.428  -1.225  0.00  0.00    +0.000 OA
ATOM     32 1H10 UNK     0       3.722  -3.036  -1.692  0.00  0.00    +0.000 HD
ENDBRANCH  30  31
BRANCH  30  33
ATOM     33  C46 UNK     0       4.615  -0.127  -0.507  0.00  0.00    +0.000 C 
BRANCH  33  34
ATOM     34  C50 UNK     0       3.889   1.211  -0.454  0.00  0.00    +0.000 A 
ATOM     35  C52 UNK     0       3.811   2.047  -1.583  0.00  0.00    +0.000 A 
ATOM     36  C55 UNK     0       3.109   3.256  -1.524  0.00  0.00    +0.000 A 
ATOM     37  C57 UNK     0       2.449   3.625  -0.351  0.00  0.00    +0.000 A 
ATOM     38  C54 UNK     0       2.496   2.794   0.768  0.00  0.00    +0.000 A 
ATOM     39  C51 UNK     0       3.219   1.597   0.723  0.00  0.00    +0.000 A 
ENDBRANCH  33  34
BRANCH  33  40
ATOM     40  N15 UNK     0       5.747  -0.070  -1.445  0.00  0.00    +0.000 N 
ATOM     41 3H10 UNK     0       5.686  -0.608  -2.334  0.00  0.00    +0.000 HD
ATOM     42  C53 UNK     0       6.976   0.598  -1.107  0.00  0.00    +0.000 C 
ATOM     43  O14 UNK     0       7.044   1.265  -0.040  0.00  0.00    +0.000 OA
BRANCH  42  44
ATOM     44  C56 UNK     0       8.177   0.499  -1.977  0.00  0.00    +0.000 A 
ATOM     45  C59 UNK     0       9.456   0.705  -1.423  0.00  0.00    +0.000 A 
ATOM     46  C61 UNK     0      10.602   0.608  -2.217  0.00  0.00    +0.000 A 
ATOM     47  C62 UNK     0      10.489   0.308  -3.576  0.00  0.00    +0.000 A 
ATOM     48  C60 UNK     0       9.228   0.117  -4.144  0.00  0.00    +0.000 A 
ATOM     49  C58 UNK     0       8.076   0.221  -3.356  0.00  0.00    +0.000 A 
ENDBRANCH  42  44
ENDBRANCH  33  40
ENDBRANCH  30  33
ENDBRANCH  28  30
ENDBRANCH  27  28
ENDBRANCH  18  27
BRANCH  17  50
ATOM     50  O6  UNK     0      -3.000  -4.221   2.584  0.00  0.00    +0.000 OA
BRANCH  50  51
ATOM     51  C39 UNK     0      -3.756  -5.392   2.455  0.00  0.00    +0.000 C 
ATOM     52  C43 UNK     0      -3.866  -6.320   3.617  0.00  0.00    +0.000 C 
ATOM     53  O11 UNK     0      -4.317  -5.683   1.363  0.00  0.00    +0.000 OA
ENDBRANCH  50  51
ENDBRANCH  17  50
BRANCH   7  54
ATOM     54  O3  UNK     0      -2.552   1.793   0.608  0.00  0.00    +0.000 OA
BRANCH  54  55
ATOM     55  C37 UNK     0      -3.075   2.974   1.151  0.00  0.00    +0.000 C 
ATOM     56  O10 UNK     0      -3.974   2.927   2.036  0.00  0.00    +0.000 OA
BRANCH  55  57
ATOM     57  C41 UNK     0      -2.576   4.279   0.667  0.00  0.00    +0.000 A 
ATOM     58  C45 UNK     0      -3.070   5.483   1.203  0.00  0.00    +0.000 A 
ATOM     59  C48 UNK     0      -2.584   6.712   0.745  0.00  0.00    +0.000 A 
ATOM     60  C49 UNK     0      -1.604   6.753  -0.247  0.00  0.00    +0.000 A 
ATOM     61  C47 UNK     0      -1.108   5.564  -0.784  0.00  0.00    +0.000 A 
ATOM     62  C44 UNK     0      -1.586   4.333  -0.330  0.00  0.00    +0.000 A 
ENDBRANCH  55  57
ENDBRANCH  54  55
ENDBRANCH   7  54
BRANCH   4  63
ATOM     63  O2  UNK     0      -1.514   0.585  -1.791  0.00  0.00    +0.000 OA
BRANCH  63  64
ATOM     64  C36 UNK     0      -0.988   1.290  -2.889  0.00  0.00    +0.000 C 
ATOM     65  O9  UNK     0      -1.720   1.700  -3.830  0.00  0.00    +0.000 OA
ATOM     66  C38 UNK     0       0.476   1.557  -2.941  0.00  0.00    +0.000 C 
ENDBRANCH  63  64
ENDBRANCH   4  63
TORSDOF 17
