REMARK  Name = C:\Users\Maximilian\Desktop\Conformers\converted_pdb\conformers_pdb\Paclitaxel_conf_38.pdb
REMARK  23 active torsions:
REMARK  status: ('A' for Active; 'I' for Inactive)
REMARK    1  A    between atoms: C17_4  and  O2_61
REMARK    2  A    between atoms: C18_5  and  C29_16
REMARK    3  A    between atoms: C20_7  and  O3_52
REMARK    4  A    between atoms: C21_8  and  O4_46
REMARK    5  A    between atoms: C22_9  and  O5_65
REMARK    6  A    between atoms: C24_11  and  C33_20
REMARK    7  A    between atoms: C24_11  and  C34_21
REMARK    8  A    between atoms: C30_17  and  O6_48
REMARK    9  A    between atoms: C31_18  and  O8_23
REMARK   10  A    between atoms: C32_19  and  C35_22
REMARK   11  A    between atoms: O8_23  and  C40_24
REMARK   12  A    between atoms: C40_24  and  C42_26
REMARK   13  A    between atoms: C42_26  and  O13_27
REMARK   14  A    between atoms: C42_26  and  C46_29
REMARK   15  A    between atoms: C46_29  and  N15_30
REMARK   16  A    between atoms: C46_29  and  C50_40
REMARK   17  A    between atoms: C53_32  and  C56_34
REMARK   18  A    between atoms: O6_48  and  C39_49
REMARK   19  A    between atoms: C39_49  and  C43_50
REMARK   20  A    between atoms: O3_52  and  C37_53
REMARK   21  A    between atoms: C37_53  and  C41_55
REMARK   22  A    between atoms: O2_61  and  C36_62
REMARK   23  A    between atoms: C36_62  and  C38_64
REMARK                            x       y       z     vdW  Elec       q    Type
REMARK                         _______ _______ _______ _____ _____    ______ ____
ROOT
ATOM      1  O1  UNK     0      -4.565   0.688  -2.834  0.00  0.00    +0.000 OA
ATOM      2  O7  UNK     0      -5.104  -2.239   2.235  0.00  0.00    +0.000 OA
ATOM      3  C16 UNK     0      -2.950  -0.374  -0.080  0.00  0.00    +0.000 C 
ATOM      4  C17 UNK     0      -2.933   0.195  -1.558  0.00  0.00    +0.000 C 
ATOM      5  C18 UNK     0      -4.224  -1.286   0.228  0.00  0.00    +0.000 C 
ATOM      6  C19 UNK     0      -3.777  -0.469  -2.653  0.00  0.00    +0.000 C 
ATOM      7  C20 UNK     0      -2.547   0.726   1.011  0.00  0.00    +0.000 C 
ATOM      8  C21 UNK     0      -1.360   0.387   2.034  0.00  0.00    +0.000 C 
ATOM      9  C22 UNK     0      -4.339  -2.321  -0.938  0.00  0.00    +0.000 C 
ATOM     10  C23 UNK     0      -4.659  -1.682  -2.298  0.00  0.00    +0.000 C 
ATOM     11  C24 UNK     0      -1.658  -0.834   2.985  0.00  0.00    +0.000 C 
ATOM     12  C25 UNK     0      -3.833   1.386  -1.856  0.00  0.00    +0.000 C 
ATOM     13  C26 UNK     0      -4.107  -2.115   1.531  0.00  0.00    +0.000 C 
ATOM     14  C27 UNK     0      -0.003   0.153   1.249  0.00  0.00    +0.000 C 
ATOM     15  C28 UNK     0      -1.649  -2.089   2.080  0.00  0.00    +0.000 C 
ATOM     16  C29 UNK     0      -5.535  -0.431   0.315  0.00  0.00    +0.000 C 
ATOM     17  C30 UNK     0      -2.891  -2.951   1.908  0.00  0.00    +0.000 C 
ATOM     18  C31 UNK     0       0.573  -1.286   1.284  0.00  0.00    +0.000 C 
ATOM     19  C32 UNK     0      -0.526  -2.332   1.328  0.00  0.00    +0.000 C 
ATOM     20  C33 UNK     0      -2.970  -0.604   3.803  0.00  0.00    +0.000 C 
ATOM     21  C34 UNK     0      -0.549  -1.000   4.090  0.00  0.00    +0.000 C 
ATOM     22  C35 UNK     0      -0.327  -3.631   0.573  0.00  0.00    +0.000 C 
ENDROOT
BRANCH   8  23
ATOM     23  O4  UNK     0      -1.202   1.510   2.881  0.00  0.00    +0.000 OA
ATOM     24  H84 UNK     0      -0.766   2.245   2.377  0.00  0.00    +0.000 HD
ENDBRANCH   8  23
BRANCH   9  25
ATOM     25  O5  UNK     0      -5.261  -3.348  -0.648  0.00  0.00    +0.000 OA
ATOM     26  H85 UNK     0      -6.176  -2.968  -0.681  0.00  0.00    +0.000 HD
ENDBRANCH   9  25
BRANCH  18  27
ATOM     27  O8  UNK     0       1.433  -1.479   0.156  0.00  0.00    +0.000 OA
BRANCH  27  28
ATOM     28  C40 UNK     0       2.804  -1.167   0.184  0.00  0.00    +0.000 C 
ATOM     29  O12 UNK     0       3.302  -0.566   1.176  0.00  0.00    +0.000 OA
BRANCH  28  30
ATOM     30  C42 UNK     0       3.702  -1.616  -0.938  0.00  0.00    +0.000 C 
BRANCH  30  31
ATOM     31  O13 UNK     0       4.731  -2.421  -0.419  0.00  0.00    +0.000 OA
ATOM     32 1H10 UNK     0       4.319  -3.290  -0.172  0.00  0.00    +0.000 HD
ENDBRANCH  30  31
BRANCH  30  33
ATOM     33  C46 UNK     0       4.297  -0.416  -1.711  0.00  0.00    +0.000 C 
BRANCH  33  34
ATOM     34  C50 UNK     0       5.148  -0.888  -2.873  0.00  0.00    +0.000 A 
ATOM     35  C52 UNK     0       4.572  -1.010  -4.152  0.00  0.00    +0.000 A 
ATOM     36  C55 UNK     0       5.328  -1.485  -5.227  0.00  0.00    +0.000 A 
ATOM     37  C57 UNK     0       6.660  -1.863  -5.035  0.00  0.00    +0.000 A 
ATOM     38  C54 UNK     0       7.240  -1.760  -3.768  0.00  0.00    +0.000 A 
ATOM     39  C51 UNK     0       6.489  -1.279  -2.691  0.00  0.00    +0.000 A 
ENDBRANCH  33  34
BRANCH  33  40
ATOM     40  N15 UNK     0       5.061   0.469  -0.818  0.00  0.00    +0.000 N 
ATOM     41 3H10 UNK     0       5.735   0.030  -0.153  0.00  0.00    +0.000 HD
ATOM     42  C53 UNK     0       4.825   1.886  -0.743  0.00  0.00    +0.000 C 
ATOM     43  O14 UNK     0       3.940   2.413  -1.473  0.00  0.00    +0.000 OA
BRANCH  42  44
ATOM     44  C56 UNK     0       5.577   2.741   0.204  0.00  0.00    +0.000 A 
ATOM     45  C59 UNK     0       5.004   3.937   0.673  0.00  0.00    +0.000 A 
ATOM     46  C61 UNK     0       5.691   4.747   1.583  0.00  0.00    +0.000 A 
ATOM     47  C62 UNK     0       6.961   4.377   2.030  0.00  0.00    +0.000 A 
ATOM     48  C60 UNK     0       7.549   3.199   1.559  0.00  0.00    +0.000 A 
ATOM     49  C58 UNK     0       6.861   2.382   0.656  0.00  0.00    +0.000 A 
ENDBRANCH  42  44
ENDBRANCH  33  40
ENDBRANCH  30  33
ENDBRANCH  28  30
ENDBRANCH  27  28
ENDBRANCH  18  27
BRANCH  17  50
ATOM     50  O6  UNK     0      -3.094  -3.678   3.122  0.00  0.00    +0.000 OA
BRANCH  50  51
ATOM     51  C39 UNK     0      -3.943  -4.783   3.235  0.00  0.00    +0.000 C 
ATOM     52  C43 UNK     0      -4.046  -5.490   4.544  0.00  0.00    +0.000 C 
ATOM     53  O11 UNK     0      -4.594  -5.200   2.241  0.00  0.00    +0.000 OA
ENDBRANCH  50  51
ENDBRANCH  17  50
BRANCH   7  54
ATOM     54  O3  UNK     0      -2.180   1.936   0.334  0.00  0.00    +0.000 OA
BRANCH  54  55
ATOM     55  C37 UNK     0      -2.592   3.227   0.700  0.00  0.00    +0.000 C 
ATOM     56  O10 UNK     0      -3.345   3.398   1.698  0.00  0.00    +0.000 OA
BRANCH  55  57
ATOM     57  C41 UNK     0      -2.143   4.390  -0.099  0.00  0.00    +0.000 A 
ATOM     58  C45 UNK     0      -2.595   5.688   0.208  0.00  0.00    +0.000 A 
ATOM     59  C48 UNK     0      -2.178   6.778  -0.564  0.00  0.00    +0.000 A 
ATOM     60  C49 UNK     0      -1.308   6.584  -1.640  0.00  0.00    +0.000 A 
ATOM     61  C47 UNK     0      -0.848   5.302  -1.947  0.00  0.00    +0.000 A 
ATOM     62  C44 UNK     0      -1.263   4.208  -1.182  0.00  0.00    +0.000 A 
ENDBRANCH  55  57
ENDBRANCH  54  55
ENDBRANCH   7  54
BRANCH   4  63
ATOM     63  O2  UNK     0      -1.603   0.470  -2.018  0.00  0.00    +0.000 OA
BRANCH  63  64
ATOM     64  C36 UNK     0      -0.687  -0.514  -2.406  0.00  0.00    +0.000 C 
ATOM     65  O9  UNK     0      -0.997  -1.738  -2.394  0.00  0.00    +0.000 OA
ATOM     66  C38 UNK     0       0.683  -0.099  -2.805  0.00  0.00    +0.000 C 
ENDBRANCH  63  64
ENDBRANCH   4  63
TORSDOF 17
