REMARK  Name = C:\Users\Maximilian\Desktop\Conformers\converted_pdb\conformers_pdb\Paclitaxel_conf_3.pdb
REMARK  23 active torsions:
REMARK  status: ('A' for Active; 'I' for Inactive)
REMARK    1  A    between atoms: C17_4  and  O2_61
REMARK    2  A    between atoms: C18_5  and  C29_16
REMARK    3  A    between atoms: C20_7  and  O3_52
REMARK    4  A    between atoms: C21_8  and  O4_46
REMARK    5  A    between atoms: C22_9  and  O5_65
REMARK    6  A    between atoms: C24_11  and  C33_20
REMARK    7  A    between atoms: C24_11  and  C34_21
REMARK    8  A    between atoms: C30_17  and  O6_48
REMARK    9  A    between atoms: C31_18  and  O8_23
REMARK   10  A    between atoms: C32_19  and  C35_22
REMARK   11  A    between atoms: O8_23  and  C40_24
REMARK   12  A    between atoms: C40_24  and  C42_26
REMARK   13  A    between atoms: C42_26  and  O13_27
REMARK   14  A    between atoms: C42_26  and  C46_29
REMARK   15  A    between atoms: C46_29  and  N15_30
REMARK   16  A    between atoms: C46_29  and  C50_40
REMARK   17  A    between atoms: C53_32  and  C56_34
REMARK   18  A    between atoms: O6_48  and  C39_49
REMARK   19  A    between atoms: C39_49  and  C43_50
REMARK   20  A    between atoms: O3_52  and  C37_53
REMARK   21  A    between atoms: C37_53  and  C41_55
REMARK   22  A    between atoms: O2_61  and  C36_62
REMARK   23  A    between atoms: C36_62  and  C38_64
REMARK                            x       y       z     vdW  Elec       q    Type
REMARK                         _______ _______ _______ _____ _____    ______ ____
ROOT
ATOM      1  O1  UNK     0      -5.843   1.860  -0.893  0.00  0.00    +0.000 OA
ATOM      2  O7  UNK     0      -0.639   1.781  -1.496  0.00  0.00    +0.000 OA
ATOM      3  C16 UNK     0      -3.023   0.252  -0.533  0.00  0.00    +0.000 C 
ATOM      4  C17 UNK     0      -4.421   0.657   0.150  0.00  0.00    +0.000 C 
ATOM      5  C18 UNK     0      -2.789   0.940  -1.984  0.00  0.00    +0.000 C 
ATOM      6  C19 UNK     0      -4.766   2.132  -0.028  0.00  0.00    +0.000 C 
ATOM      7  C20 UNK     0      -2.628  -1.313  -0.336  0.00  0.00    +0.000 C 
ATOM      8  C21 UNK     0      -1.100  -1.871  -0.424  0.00  0.00    +0.000 C 
ATOM      9  C22 UNK     0      -3.250   2.488  -2.025  0.00  0.00    +0.000 C 
ATOM     10  C23 UNK     0      -3.683   3.008  -0.649  0.00  0.00    +0.000 C 
ATOM     11  C24 UNK     0      -0.491  -2.153  -1.884  0.00  0.00    +0.000 C 
ATOM     12  C25 UNK     0      -5.726   0.483  -0.638  0.00  0.00    +0.000 C 
ATOM     13  C26 UNK     0      -1.250   1.001  -2.216  0.00  0.00    +0.000 C 
ATOM     14  C27 UNK     0      -0.158  -0.935   0.434  0.00  0.00    +0.000 C 
ATOM     15  C28 UNK     0       0.309  -0.919  -2.319  0.00  0.00    +0.000 C 
ATOM     16  C29 UNK     0      -3.606   0.177  -3.082  0.00  0.00    +0.000 C 
ATOM     17  C30 UNK     0      -0.340   0.189  -3.143  0.00  0.00    +0.000 C 
ATOM     18  C31 UNK     0       1.315  -0.900  -0.023  0.00  0.00    +0.000 C 
ATOM     19  C32 UNK     0       1.366  -0.565  -1.517  0.00  0.00    +0.000 C 
ATOM     20  C33 UNK     0      -1.544  -2.645  -2.906  0.00  0.00    +0.000 C 
ATOM     21  C34 UNK     0       0.510  -3.369  -1.903  0.00  0.00    +0.000 C 
ATOM     22  C35 UNK     0       2.462   0.354  -2.012  0.00  0.00    +0.000 C 
ENDROOT
BRANCH   8  23
ATOM     23  O4  UNK     0      -1.128  -3.138   0.206  0.00  0.00    +0.000 OA
ATOM     24  H84 UNK     0      -0.250  -3.339   0.638  0.00  0.00    +0.000 HD
ENDBRANCH   8  23
BRANCH   9  25
ATOM     25  O5  UNK     0      -4.230   2.744  -3.001  0.00  0.00    +0.000 OA
ATOM     26  H85 UNK     0      -4.672   3.619  -2.821  0.00  0.00    +0.000 HD
ENDBRANCH   9  25
BRANCH  18  27
ATOM     27  O8  UNK     0       2.015   0.100   0.721  0.00  0.00    +0.000 OA
BRANCH  27  28
ATOM     28  C40 UNK     0       2.270   0.031   2.092  0.00  0.00    +0.000 C 
ATOM     29  O12 UNK     0       1.923  -0.978   2.758  0.00  0.00    +0.000 OA
BRANCH  28  30
ATOM     30  C42 UNK     0       2.984   1.166   2.772  0.00  0.00    +0.000 C 
BRANCH  30  31
ATOM     31  O13 UNK     0       2.464   2.390   2.325  0.00  0.00    +0.000 OA
ATOM     32 1H10 UNK     0       1.540   2.459   2.679  0.00  0.00    +0.000 HD
ENDBRANCH  30  31
BRANCH  30  33
ATOM     33  C46 UNK     0       4.503   1.095   2.495  0.00  0.00    +0.000 C 
BRANCH  33  34
ATOM     34  C50 UNK     0       5.232   2.166   3.284  0.00  0.00    +0.000 A 
ATOM     35  C52 UNK     0       5.768   1.859   4.547  0.00  0.00    +0.000 A 
ATOM     36  C55 UNK     0       6.362   2.859   5.322  0.00  0.00    +0.000 A 
ATOM     37  C57 UNK     0       6.426   4.173   4.848  0.00  0.00    +0.000 A 
ATOM     38  C54 UNK     0       5.891   4.490   3.599  0.00  0.00    +0.000 A 
ATOM     39  C51 UNK     0       5.296   3.494   2.818  0.00  0.00    +0.000 A 
ENDBRANCH  33  34
BRANCH  33  40
ATOM     40  N15 UNK     0       4.784   1.227   1.059  0.00  0.00    +0.000 N 
ATOM     41 3H10 UNK     0       4.111   1.755   0.460  0.00  0.00    +0.000 HD
ATOM     42  C53 UNK     0       5.954   0.653   0.448  0.00  0.00    +0.000 C 
ATOM     43  O14 UNK     0       6.754  -0.033   1.142  0.00  0.00    +0.000 OA
BRANCH  42  44
ATOM     44  C56 UNK     0       6.205   0.816  -1.005  0.00  0.00    +0.000 A 
ATOM     45  C59 UNK     0       6.873  -0.196  -1.719  0.00  0.00    +0.000 A 
ATOM     46  C61 UNK     0       7.108  -0.061  -3.092  0.00  0.00    +0.000 A 
ATOM     47  C62 UNK     0       6.685   1.086  -3.765  0.00  0.00    +0.000 A 
ATOM     48  C60 UNK     0       6.031   2.106  -3.064  0.00  0.00    +0.000 A 
ATOM     49  C58 UNK     0       5.801   1.977  -1.689  0.00  0.00    +0.000 A 
ENDBRANCH  42  44
ENDBRANCH  33  40
ENDBRANCH  30  33
ENDBRANCH  28  30
ENDBRANCH  27  28
ENDBRANCH  18  27
BRANCH  17  50
ATOM     50  O6  UNK     0      -0.930  -0.290  -4.347  0.00  0.00    +0.000 OA
BRANCH  50  51
ATOM     51  C39 UNK     0      -1.055   0.483  -5.511  0.00  0.00    +0.000 C 
ATOM     52  C43 UNK     0      -1.715  -0.098  -6.714  0.00  0.00    +0.000 C 
ATOM     53  O11 UNK     0      -0.621   1.669  -5.554  0.00  0.00    +0.000 OA
ENDBRANCH  50  51
ENDBRANCH  17  50
BRANCH   7  54
ATOM     54  O3  UNK     0      -3.066  -1.670   0.982  0.00  0.00    +0.000 OA
BRANCH  54  55
ATOM     55  C37 UNK     0      -3.513  -2.941   1.381  0.00  0.00    +0.000 C 
ATOM     56  O10 UNK     0      -3.918  -3.773   0.521  0.00  0.00    +0.000 OA
BRANCH  55  57
ATOM     57  C41 UNK     0      -3.463  -3.304   2.815  0.00  0.00    +0.000 A 
ATOM     58  C45 UNK     0      -3.923  -4.560   3.256  0.00  0.00    +0.000 A 
ATOM     59  C48 UNK     0      -3.867  -4.892   4.614  0.00  0.00    +0.000 A 
ATOM     60  C49 UNK     0      -3.344  -3.980   5.540  0.00  0.00    +0.000 A 
ATOM     61  C47 UNK     0      -2.881  -2.735   5.113  0.00  0.00    +0.000 A 
ATOM     62  C44 UNK     0      -2.929  -2.400   3.757  0.00  0.00    +0.000 A 
ENDBRANCH  55  57
ENDBRANCH  54  55
ENDBRANCH   7  54
BRANCH   4  63
ATOM     63  O2  UNK     0      -4.511   0.374   1.564  0.00  0.00    +0.000 OA
BRANCH  63  64
ATOM     64  C36 UNK     0      -5.407  -0.513   2.191  0.00  0.00    +0.000 C 
ATOM     65  O9  UNK     0      -5.974  -1.434   1.540  0.00  0.00    +0.000 OA
ATOM     66  C38 UNK     0      -5.698  -0.365   3.645  0.00  0.00    +0.000 C 
ENDBRANCH  63  64
ENDBRANCH   4  63
TORSDOF 17
