REMARK  Name = C:\Users\Maximilian\Desktop\Conformers\converted_pdb\conformers_pdb\Paclitaxel_conf_61.pdb
REMARK  23 active torsions:
REMARK  status: ('A' for Active; 'I' for Inactive)
REMARK    1  A    between atoms: C17_4  and  O2_61
REMARK    2  A    between atoms: C18_5  and  C29_16
REMARK    3  A    between atoms: C20_7  and  O3_52
REMARK    4  A    between atoms: C21_8  and  O4_46
REMARK    5  A    between atoms: C22_9  and  O5_65
REMARK    6  A    between atoms: C24_11  and  C33_20
REMARK    7  A    between atoms: C24_11  and  C34_21
REMARK    8  A    between atoms: C30_17  and  O6_48
REMARK    9  A    between atoms: C31_18  and  O8_23
REMARK   10  A    between atoms: C32_19  and  C35_22
REMARK   11  A    between atoms: O8_23  and  C40_24
REMARK   12  A    between atoms: C40_24  and  C42_26
REMARK   13  A    between atoms: C42_26  and  O13_27
REMARK   14  A    between atoms: C42_26  and  C46_29
REMARK   15  A    between atoms: C46_29  and  N15_30
REMARK   16  A    between atoms: C46_29  and  C50_40
REMARK   17  A    between atoms: C53_32  and  C56_34
REMARK   18  A    between atoms: O6_48  and  C39_49
REMARK   19  A    between atoms: C39_49  and  C43_50
REMARK   20  A    between atoms: O3_52  and  C37_53
REMARK   21  A    between atoms: C37_53  and  C41_55
REMARK   22  A    between atoms: O2_61  and  C36_62
REMARK   23  A    between atoms: C36_62  and  C38_64
REMARK                            x       y       z     vdW  Elec       q    Type
REMARK                         _______ _______ _______ _____ _____    ______ ____
ROOT
ATOM      1  O1  UNK     0      -4.367  -0.827  -2.288  0.00  0.00    +0.000 OA
ATOM      2  O7  UNK     0      -3.037  -2.480   3.234  0.00  0.00    +0.000 OA
ATOM      3  C16 UNK     0      -2.357  -0.357   0.357  0.00  0.00    +0.000 C 
ATOM      4  C17 UNK     0      -2.716  -0.110  -1.160  0.00  0.00    +0.000 C 
ATOM      5  C18 UNK     0      -2.906  -1.727   0.958  0.00  0.00    +0.000 C 
ATOM      6  C19 UNK     0      -3.064  -1.317  -2.037  0.00  0.00    +0.000 C 
ATOM      7  C20 UNK     0      -2.542   0.940   1.263  0.00  0.00    +0.000 C 
ATOM      8  C21 UNK     0      -1.268   1.480   2.065  0.00  0.00    +0.000 C 
ATOM      9  C22 UNK     0      -2.479  -2.858  -0.032  0.00  0.00    +0.000 C 
ATOM     10  C23 UNK     0      -3.134  -2.730  -1.417  0.00  0.00    +0.000 C 
ATOM     11  C24 UNK     0      -0.742   0.510   3.191  0.00  0.00    +0.000 C 
ATOM     12  C25 UNK     0      -4.144   0.309  -1.481  0.00  0.00    +0.000 C 
ATOM     13  C26 UNK     0      -2.295  -2.077   2.344  0.00  0.00    +0.000 C 
ATOM     14  C27 UNK     0      -0.107   1.828   1.065  0.00  0.00    +0.000 C 
ATOM     15  C28 UNK     0      -0.166  -0.729   2.479  0.00  0.00    +0.000 C 
ATOM     16  C29 UNK     0      -4.464  -1.712   1.112  0.00  0.00    +0.000 C 
ATOM     17  C30 UNK     0      -0.797  -2.107   2.631  0.00  0.00    +0.000 C 
ATOM     18  C31 UNK     0       1.079   0.821   0.936  0.00  0.00    +0.000 C 
ATOM     19  C32 UNK     0       0.825  -0.544   1.557  0.00  0.00    +0.000 C 
ATOM     20  C33 UNK     0      -1.838   0.197   4.263  0.00  0.00    +0.000 C 
ATOM     21  C34 UNK     0       0.396   1.171   4.031  0.00  0.00    +0.000 C 
ATOM     22  C35 UNK     0       1.683  -1.690   1.071  0.00  0.00    +0.000 C 
ENDROOT
BRANCH   8  23
ATOM     23  O4  UNK     0      -1.628   2.706   2.672  0.00  0.00    +0.000 OA
ATOM     24  H84 UNK     0      -2.463   2.576   3.189  0.00  0.00    +0.000 HD
ENDBRANCH   8  23
BRANCH   9  25
ATOM     25  O5  UNK     0      -2.698  -4.144   0.502  0.00  0.00    +0.000 OA
ATOM     26  H85 UNK     0      -3.676  -4.311   0.513  0.00  0.00    +0.000 HD
ENDBRANCH   9  25
BRANCH  18  27
ATOM     27  O8  UNK     0       1.410   0.644  -0.446  0.00  0.00    +0.000 OA
BRANCH  27  28
ATOM     28  C40 UNK     0       2.045   1.619  -1.225  0.00  0.00    +0.000 C 
ATOM     29  O12 UNK     0       2.179   2.793  -0.791  0.00  0.00    +0.000 OA
BRANCH  28  30
ATOM     30  C42 UNK     0       2.622   1.254  -2.570  0.00  0.00    +0.000 C 
BRANCH  30  31
ATOM     31  O13 UNK     0       1.831   0.293  -3.229  0.00  0.00    +0.000 OA
ATOM     32 1H10 UNK     0       1.731  -0.500  -2.642  0.00  0.00    +0.000 HD
ENDBRANCH  30  31
BRANCH  30  33
ATOM     33  C46 UNK     0       4.101   0.812  -2.438  0.00  0.00    +0.000 C 
BRANCH  33  34
ATOM     34  C50 UNK     0       4.711   0.492  -3.788  0.00  0.00    +0.000 A 
ATOM     35  C52 UNK     0       5.495   1.455  -4.450  0.00  0.00    +0.000 A 
ATOM     36  C55 UNK     0       6.056   1.176  -5.700  0.00  0.00    +0.000 A 
ATOM     37  C57 UNK     0       5.840  -0.065  -6.303  0.00  0.00    +0.000 A 
ATOM     38  C54 UNK     0       5.051  -1.025  -5.664  0.00  0.00    +0.000 A 
ATOM     39  C51 UNK     0       4.484  -0.749  -4.416  0.00  0.00    +0.000 A 
ENDBRANCH  33  34
BRANCH  33  40
ATOM     40  N15 UNK     0       4.252  -0.327  -1.521  0.00  0.00    +0.000 N 
ATOM     41 3H10 UNK     0       3.586  -1.125  -1.601  0.00  0.00    +0.000 HD
ATOM     42  C53 UNK     0       5.305  -0.407  -0.544  0.00  0.00    +0.000 C 
ATOM     43  O14 UNK     0       6.139   0.533  -0.437  0.00  0.00    +0.000 OA
BRANCH  42  44
ATOM     44  C56 UNK     0       5.398  -1.565   0.373  0.00  0.00    +0.000 A 
ATOM     45  C59 UNK     0       5.007  -2.853  -0.038  0.00  0.00    +0.000 A 
ATOM     46  C61 UNK     0       5.058  -3.927   0.857  0.00  0.00    +0.000 A 
ATOM     47  C62 UNK     0       5.504  -3.726   2.165  0.00  0.00    +0.000 A 
ATOM     48  C60 UNK     0       5.915  -2.456   2.578  0.00  0.00    +0.000 A 
ATOM     49  C58 UNK     0       5.868  -1.381   1.685  0.00  0.00    +0.000 A 
ENDBRANCH  42  44
ENDBRANCH  33  40
ENDBRANCH  30  33
ENDBRANCH  28  30
ENDBRANCH  27  28
ENDBRANCH  18  27
BRANCH  17  50
ATOM     50  O6  UNK     0      -0.510  -2.591   3.946  0.00  0.00    +0.000 OA
BRANCH  50  51
ATOM     51  C39 UNK     0      -0.667  -3.923   4.339  0.00  0.00    +0.000 C 
ATOM     52  C43 UNK     0      -0.314  -4.324   5.731  0.00  0.00    +0.000 C 
ATOM     53  O11 UNK     0      -1.078  -4.793   3.526  0.00  0.00    +0.000 OA
ENDBRANCH  50  51
ENDBRANCH  17  50
BRANCH   7  54
ATOM     54  O3  UNK     0      -3.018   2.024   0.453  0.00  0.00    +0.000 OA
BRANCH  54  55
ATOM     55  C37 UNK     0      -4.082   2.875   0.780  0.00  0.00    +0.000 C 
ATOM     56  O10 UNK     0      -4.749   2.689   1.835  0.00  0.00    +0.000 OA
BRANCH  55  57
ATOM     57  C41 UNK     0      -4.433   3.980  -0.135  0.00  0.00    +0.000 A 
ATOM     58  C45 UNK     0      -3.681   4.195  -1.305  0.00  0.00    +0.000 A 
ATOM     59  C48 UNK     0      -4.016   5.233  -2.180  0.00  0.00    +0.000 A 
ATOM     60  C49 UNK     0      -5.097   6.070  -1.893  0.00  0.00    +0.000 A 
ATOM     61  C47 UNK     0      -5.847   5.869  -0.731  0.00  0.00    +0.000 A 
ATOM     62  C44 UNK     0      -5.520   4.829   0.144  0.00  0.00    +0.000 A 
ENDBRANCH  55  57
ENDBRANCH  54  55
ENDBRANCH   7  54
BRANCH   4  63
ATOM     63  O2  UNK     0      -1.736   0.763  -1.766  0.00  0.00    +0.000 OA
BRANCH  63  64
ATOM     64  C36 UNK     0      -1.755   1.314  -3.061  0.00  0.00    +0.000 C 
ATOM     65  O9  UNK     0      -2.575   0.925  -3.935  0.00  0.00    +0.000 OA
ATOM     66  C38 UNK     0      -0.783   2.389  -3.413  0.00  0.00    +0.000 C 
ENDBRANCH  63  64
ENDBRANCH   4  63
TORSDOF 17
