REMARK  Name = C:\Users\Maximilian\Desktop\Conformers\converted_pdb\conformers_pdb\Paclitaxel_conf_40.pdb
REMARK  23 active torsions:
REMARK  status: ('A' for Active; 'I' for Inactive)
REMARK    1  A    between atoms: C17_4  and  O2_61
REMARK    2  A    between atoms: C18_5  and  C29_16
REMARK    3  A    between atoms: C20_7  and  O3_52
REMARK    4  A    between atoms: C21_8  and  O4_46
REMARK    5  A    between atoms: C22_9  and  O5_65
REMARK    6  A    between atoms: C24_11  and  C33_20
REMARK    7  A    between atoms: C24_11  and  C34_21
REMARK    8  A    between atoms: C30_17  and  O6_48
REMARK    9  A    between atoms: C31_18  and  O8_23
REMARK   10  A    between atoms: C32_19  and  C35_22
REMARK   11  A    between atoms: O8_23  and  C40_24
REMARK   12  A    between atoms: C40_24  and  C42_26
REMARK   13  A    between atoms: C42_26  and  O13_27
REMARK   14  A    between atoms: C42_26  and  C46_29
REMARK   15  A    between atoms: C46_29  and  N15_30
REMARK   16  A    between atoms: C46_29  and  C50_40
REMARK   17  A    between atoms: C53_32  and  C56_34
REMARK   18  A    between atoms: O6_48  and  C39_49
REMARK   19  A    between atoms: C39_49  and  C43_50
REMARK   20  A    between atoms: O3_52  and  C37_53
REMARK   21  A    between atoms: C37_53  and  C41_55
REMARK   22  A    between atoms: O2_61  and  C36_62
REMARK   23  A    between atoms: C36_62  and  C38_64
REMARK                            x       y       z     vdW  Elec       q    Type
REMARK                         _______ _______ _______ _____ _____    ______ ____
ROOT
ATOM      1  O1  UNK     0      -5.649  -0.220   2.389  0.00  0.00    +0.000 OA
ATOM      2  O7  UNK     0      -3.391   4.588  -0.280  0.00  0.00    +0.000 OA
ATOM      3  C16 UNK     0      -3.137   0.776   0.371  0.00  0.00    +0.000 C 
ATOM      4  C17 UNK     0      -3.657  -0.167   1.583  0.00  0.00    +0.000 C 
ATOM      5  C18 UNK     0      -3.725   2.284   0.391  0.00  0.00    +0.000 C 
ATOM      6  C19 UNK     0      -4.446   0.420   2.756  0.00  0.00    +0.000 C 
ATOM      7  C20 UNK     0      -3.218  -0.112  -0.966  0.00  0.00    +0.000 C 
ATOM      8  C21 UNK     0      -2.003  -0.121  -1.964  0.00  0.00    +0.000 C 
ATOM      9  C22 UNK     0      -3.683   2.738   1.917  0.00  0.00    +0.000 C 
ATOM     10  C23 UNK     0      -4.626   1.926   2.821  0.00  0.00    +0.000 C 
ATOM     11  C24 UNK     0      -1.721   1.249  -2.648  0.00  0.00    +0.000 C 
ATOM     12  C25 UNK     0      -5.010  -0.873   1.325  0.00  0.00    +0.000 C 
ATOM     13  C26 UNK     0      -2.972   3.441  -0.406  0.00  0.00    +0.000 C 
ATOM     14  C27 UNK     0      -0.716  -0.648  -1.162  0.00  0.00    +0.000 C 
ATOM     15  C28 UNK     0      -1.043   2.152  -1.577  0.00  0.00    +0.000 C 
ATOM     16  C29 UNK     0      -5.197   2.296  -0.131  0.00  0.00    +0.000 C 
ATOM     17  C30 UNK     0      -1.676   3.486  -1.190  0.00  0.00    +0.000 C 
ATOM     18  C31 UNK     0       0.513   0.294  -1.082  0.00  0.00    +0.000 C 
ATOM     19  C32 UNK     0       0.092   1.745  -0.961  0.00  0.00    +0.000 C 
ATOM     20  C33 UNK     0      -3.011   1.844  -3.319  0.00  0.00    +0.000 C 
ATOM     21  C34 UNK     0      -0.747   1.018  -3.838  0.00  0.00    +0.000 C 
ATOM     22  C35 UNK     0       1.086   2.709  -0.340  0.00  0.00    +0.000 C 
ENDROOT
BRANCH   8  23
ATOM     23  O4  UNK     0      -2.398  -1.008  -3.007  0.00  0.00    +0.000 OA
ATOM     24  H84 UNK     0      -1.684  -1.671  -3.163  0.00  0.00    +0.000 HD
ENDBRANCH   8  23
BRANCH   9  25
ATOM     25  O5  UNK     0      -4.093   4.082   2.063  0.00  0.00    +0.000 OA
ATOM     26  H85 UNK     0      -3.774   4.380   2.968  0.00  0.00    +0.000 HD
ENDBRANCH   9  25
BRANCH  18  27
ATOM     27  O8  UNK     0       1.325  -0.089   0.039  0.00  0.00    +0.000 OA
BRANCH  27  28
ATOM     28  C40 UNK     0       2.138  -1.231   0.000  0.00  0.00    +0.000 C 
ATOM     29  O12 UNK     0       2.107  -2.003  -0.987  0.00  0.00    +0.000 OA
BRANCH  28  30
ATOM     30  C42 UNK     0       3.148  -1.445   1.069  0.00  0.00    +0.000 C 
BRANCH  30  31
ATOM     31  O13 UNK     0       2.623  -1.029   2.303  0.00  0.00    +0.000 OA
ATOM     32 1H10 UNK     0       2.471  -1.862   2.832  0.00  0.00    +0.000 HD
ENDBRANCH  30  31
BRANCH  30  33
ATOM     33  C46 UNK     0       4.427  -0.663   0.755  0.00  0.00    +0.000 C 
BRANCH  33  34
ATOM     34  C50 UNK     0       5.016  -1.031  -0.590  0.00  0.00    +0.000 A 
ATOM     35  C52 UNK     0       5.540  -2.318  -0.790  0.00  0.00    +0.000 A 
ATOM     36  C55 UNK     0       6.077  -2.672  -2.031  0.00  0.00    +0.000 A 
ATOM     37  C57 UNK     0       6.052  -1.759  -3.084  0.00  0.00    +0.000 A 
ATOM     38  C54 UNK     0       5.473  -0.501  -2.922  0.00  0.00    +0.000 A 
ATOM     39  C51 UNK     0       4.940  -0.135  -1.674  0.00  0.00    +0.000 A 
ENDBRANCH  33  34
BRANCH  33  40
ATOM     40  N15 UNK     0       5.404  -0.962   1.803  0.00  0.00    +0.000 N 
ATOM     41 3H10 UNK     0       5.608  -1.978   2.008  0.00  0.00    +0.000 HD
ATOM     42  C53 UNK     0       6.166   0.052   2.454  0.00  0.00    +0.000 C 
ATOM     43  O14 UNK     0       5.984   1.267   2.146  0.00  0.00    +0.000 OA
BRANCH  42  44
ATOM     44  C56 UNK     0       7.058  -0.270   3.583  0.00  0.00    +0.000 A 
ATOM     45  C59 UNK     0       7.639  -1.550   3.737  0.00  0.00    +0.000 A 
ATOM     46  C61 UNK     0       8.409  -1.838   4.874  0.00  0.00    +0.000 A 
ATOM     47  C62 UNK     0       8.684  -0.827   5.798  0.00  0.00    +0.000 A 
ATOM     48  C60 UNK     0       8.132   0.447   5.625  0.00  0.00    +0.000 A 
ATOM     49  C58 UNK     0       7.355   0.734   4.506  0.00  0.00    +0.000 A 
ENDBRANCH  42  44
ENDBRANCH  33  40
ENDBRANCH  30  33
ENDBRANCH  28  30
ENDBRANCH  27  28
ENDBRANCH  18  27
BRANCH  17  50
ATOM     50  O6  UNK     0      -1.920   4.229  -2.368  0.00  0.00    +0.000 OA
BRANCH  50  51
ATOM     51  C39 UNK     0      -1.633   5.620  -2.473  0.00  0.00    +0.000 C 
ATOM     52  C43 UNK     0      -1.944   6.324  -3.727  0.00  0.00    +0.000 C 
ATOM     53  O11 UNK     0      -1.084   6.226  -1.504  0.00  0.00    +0.000 OA
ENDBRANCH  50  51
ENDBRANCH  17  50
BRANCH   7  54
ATOM     54  O3  UNK     0      -3.329  -1.496  -0.608  0.00  0.00    +0.000 OA
BRANCH  54  55
ATOM     55  C37 UNK     0      -4.003  -2.496  -1.257  0.00  0.00    +0.000 C 
ATOM     56  O10 UNK     0      -4.881  -2.188  -2.147  0.00  0.00    +0.000 OA
BRANCH  55  57
ATOM     57  C41 UNK     0      -3.775  -3.882  -0.825  0.00  0.00    +0.000 A 
ATOM     58  C45 UNK     0      -2.722  -4.177   0.096  0.00  0.00    +0.000 A 
ATOM     59  C48 UNK     0      -2.558  -5.505   0.545  0.00  0.00    +0.000 A 
ATOM     60  C49 UNK     0      -3.370  -6.512   0.015  0.00  0.00    +0.000 A 
ATOM     61  C47 UNK     0      -4.362  -6.222  -0.915  0.00  0.00    +0.000 A 
ATOM     62  C44 UNK     0      -4.537  -4.914  -1.369  0.00  0.00    +0.000 A 
ENDBRANCH  55  57
ENDBRANCH  54  55
ENDBRANCH   7  54
BRANCH   4  63
ATOM     63  O2  UNK     0      -2.672  -1.121   2.012  0.00  0.00    +0.000 OA
BRANCH  63  64
ATOM     64  C36 UNK     0      -1.446  -0.797   2.591  0.00  0.00    +0.000 C 
ATOM     65  O9  UNK     0      -1.184   0.398   2.877  0.00  0.00    +0.000 OA
ATOM     66  C38 UNK     0      -0.441  -1.867   2.757  0.00  0.00    +0.000 C 
ENDBRANCH  63  64
ENDBRANCH   4  63
TORSDOF 17
