REMARK  Name = C:\Users\Maximilian\Desktop\Conformers\converted_pdb\conformers_pdb\Paclitaxel_conf_86.pdb
REMARK  23 active torsions:
REMARK  status: ('A' for Active; 'I' for Inactive)
REMARK    1  A    between atoms: C17_4  and  O2_61
REMARK    2  A    between atoms: C18_5  and  C29_16
REMARK    3  A    between atoms: C20_7  and  O3_52
REMARK    4  A    between atoms: C21_8  and  O4_46
REMARK    5  A    between atoms: C22_9  and  O5_65
REMARK    6  A    between atoms: C24_11  and  C33_20
REMARK    7  A    between atoms: C24_11  and  C34_21
REMARK    8  A    between atoms: C30_17  and  O6_48
REMARK    9  A    between atoms: C31_18  and  O8_23
REMARK   10  A    between atoms: C32_19  and  C35_22
REMARK   11  A    between atoms: O8_23  and  C40_24
REMARK   12  A    between atoms: C40_24  and  C42_26
REMARK   13  A    between atoms: C42_26  and  O13_27
REMARK   14  A    between atoms: C42_26  and  C46_29
REMARK   15  A    between atoms: C46_29  and  N15_30
REMARK   16  A    between atoms: C46_29  and  C50_40
REMARK   17  A    between atoms: C53_32  and  C56_34
REMARK   18  A    between atoms: O6_48  and  C39_49
REMARK   19  A    between atoms: C39_49  and  C43_50
REMARK   20  A    between atoms: O3_52  and  C37_53
REMARK   21  A    between atoms: C37_53  and  C41_55
REMARK   22  A    between atoms: O2_61  and  C36_62
REMARK   23  A    between atoms: C36_62  and  C38_64
REMARK                            x       y       z     vdW  Elec       q    Type
REMARK                         _______ _______ _______ _____ _____    ______ ____
ROOT
ATOM      1  O1  UNK     0      -5.321   0.359  -1.275  0.00  0.00    +0.000 OA
ATOM      2  O7  UNK     0      -2.271  -4.656  -0.320  0.00  0.00    +0.000 OA
ATOM      3  C16 UNK     0      -2.520  -1.025  -0.029  0.00  0.00    +0.000 C 
ATOM      4  C17 UNK     0      -3.340   0.237  -0.514  0.00  0.00    +0.000 C 
ATOM      5  C18 UNK     0      -2.901  -2.388  -0.761  0.00  0.00    +0.000 C 
ATOM      6  C19 UNK     0      -4.052   0.184  -1.872  0.00  0.00    +0.000 C 
ATOM      7  C20 UNK     0      -2.339  -1.083   1.557  0.00  0.00    +0.000 C 
ATOM      8  C21 UNK     0      -0.850  -1.136   2.139  0.00  0.00    +0.000 C 
ATOM      9  C22 UNK     0      -2.917  -2.091  -2.296  0.00  0.00    +0.000 C 
ATOM     10  C23 UNK     0      -4.026  -1.113  -2.703  0.00  0.00    +0.000 C 
ATOM     11  C24 UNK     0      -0.041  -2.430   1.752  0.00  0.00    +0.000 C 
ATOM     12  C25 UNK     0      -4.758   0.398   0.018  0.00  0.00    +0.000 C 
ATOM     13  C26 UNK     0      -1.865  -3.522  -0.542  0.00  0.00    +0.000 C 
ATOM     14  C27 UNK     0      -0.048   0.156   1.705  0.00  0.00    +0.000 C 
ATOM     15  C28 UNK     0       0.229  -2.343   0.234  0.00  0.00    +0.000 C 
ATOM     16  C29 UNK     0      -4.297  -2.919  -0.295  0.00  0.00    +0.000 C 
ATOM     17  C30 UNK     0      -0.364  -3.348  -0.745  0.00  0.00    +0.000 C 
ATOM     18  C31 UNK     0       1.102  -0.034   0.668  0.00  0.00    +0.000 C 
ATOM     19  C32 UNK     0       0.897  -1.244  -0.234  0.00  0.00    +0.000 C 
ATOM     20  C33 UNK     0      -0.780  -3.723   2.226  0.00  0.00    +0.000 C 
ATOM     21  C34 UNK     0       1.339  -2.489   2.506  0.00  0.00    +0.000 C 
ATOM     22  C35 UNK     0       1.434  -1.177  -1.648  0.00  0.00    +0.000 C 
ENDROOT
BRANCH   8  23
ATOM     23  O4  UNK     0      -0.954  -1.153   3.551  0.00  0.00    +0.000 OA
ATOM     24  H84 UNK     0      -1.219  -0.251   3.875  0.00  0.00    +0.000 HD
ENDBRANCH   8  23
BRANCH   9  25
ATOM     25  O5  UNK     0      -2.990  -3.267  -3.070  0.00  0.00    +0.000 OA
ATOM     26  H85 UNK     0      -3.901  -3.648  -2.977  0.00  0.00    +0.000 HD
ENDBRANCH   9  25
BRANCH  18  27
ATOM     27  O8  UNK     0       1.241   1.152  -0.122  0.00  0.00    +0.000 OA
BRANCH  27  28
ATOM     28  C40 UNK     0       1.722   2.368   0.382  0.00  0.00    +0.000 C 
ATOM     29  O12 UNK     0       1.752   2.583   1.623  0.00  0.00    +0.000 OA
BRANCH  28  30
ATOM     30  C42 UNK     0       2.300   3.386  -0.554  0.00  0.00    +0.000 C 
BRANCH  30  31
ATOM     31  O13 UNK     0       1.728   3.230  -1.828  0.00  0.00    +0.000 OA
ATOM     32 1H10 UNK     0       1.763   4.118  -2.273  0.00  0.00    +0.000 HD
ENDBRANCH  30  31
BRANCH  30  33
ATOM     33  C46 UNK     0       3.837   3.217  -0.607  0.00  0.00    +0.000 C 
BRANCH  33  34
ATOM     34  C50 UNK     0       4.490   4.324  -1.409  0.00  0.00    +0.000 A 
ATOM     35  C52 UNK     0       4.927   5.489  -0.753  0.00  0.00    +0.000 A 
ATOM     36  C55 UNK     0       5.503   6.537  -1.477  0.00  0.00    +0.000 A 
ATOM     37  C57 UNK     0       5.643   6.437  -2.863  0.00  0.00    +0.000 A 
ATOM     38  C54 UNK     0       5.202   5.292  -3.528  0.00  0.00    +0.000 A 
ATOM     39  C51 UNK     0       4.621   4.241  -2.810  0.00  0.00    +0.000 A 
ENDBRANCH  33  34
BRANCH  33  40
ATOM     40  N15 UNK     0       4.202   1.894  -1.137  0.00  0.00    +0.000 N 
ATOM     41 3H10 UNK     0       3.642   1.510  -1.927  0.00  0.00    +0.000 HD
ATOM     42  C53 UNK     0       5.280   1.115  -0.587  0.00  0.00    +0.000 C 
ATOM     43  O14 UNK     0       6.022   1.617   0.300  0.00  0.00    +0.000 OA
BRANCH  42  44
ATOM     44  C56 UNK     0       5.509  -0.288  -1.007  0.00  0.00    +0.000 A 
ATOM     45  C59 UNK     0       6.115  -1.193  -0.113  0.00  0.00    +0.000 A 
ATOM     46  C61 UNK     0       6.336  -2.523  -0.486  0.00  0.00    +0.000 A 
ATOM     47  C62 UNK     0       5.952  -2.967  -1.752  0.00  0.00    +0.000 A 
ATOM     48  C60 UNK     0       5.361  -2.078  -2.653  0.00  0.00    +0.000 A 
ATOM     49  C58 UNK     0       5.141  -0.746  -2.286  0.00  0.00    +0.000 A 
ENDBRANCH  42  44
ENDBRANCH  33  40
ENDBRANCH  30  33
ENDBRANCH  28  30
ENDBRANCH  27  28
ENDBRANCH  18  27
BRANCH  17  50
ATOM     50  O6  UNK     0       0.341  -4.586  -0.605  0.00  0.00    +0.000 OA
BRANCH  50  51
ATOM     51  C39 UNK     0       0.257  -5.636  -1.525  0.00  0.00    +0.000 C 
ATOM     52  C43 UNK     0       1.039  -6.881  -1.288  0.00  0.00    +0.000 C 
ATOM     53  O11 UNK     0      -0.452  -5.530  -2.562  0.00  0.00    +0.000 OA
ENDBRANCH  50  51
ENDBRANCH  17  50
BRANCH   7  54
ATOM     54  O3  UNK     0      -2.981   0.058   2.143  0.00  0.00    +0.000 OA
BRANCH  54  55
ATOM     55  C37 UNK     0      -3.837   0.031   3.253  0.00  0.00    +0.000 C 
ATOM     56  O10 UNK     0      -4.102  -1.060   3.831  0.00  0.00    +0.000 OA
BRANCH  55  57
ATOM     57  C41 UNK     0      -4.438   1.295   3.732  0.00  0.00    +0.000 A 
ATOM     58  C45 UNK     0      -4.097   2.517   3.123  0.00  0.00    +0.000 A 
ATOM     59  C48 UNK     0      -4.672   3.713   3.561  0.00  0.00    +0.000 A 
ATOM     60  C49 UNK     0      -5.590   3.703   4.615  0.00  0.00    +0.000 A 
ATOM     61  C47 UNK     0      -5.932   2.498   5.232  0.00  0.00    +0.000 A 
ATOM     62  C44 UNK     0      -5.360   1.297   4.795  0.00  0.00    +0.000 A 
ENDBRANCH  55  57
ENDBRANCH  54  55
ENDBRANCH   7  54
BRANCH   4  63
ATOM     63  O2  UNK     0      -2.540   1.427  -0.351  0.00  0.00    +0.000 OA
BRANCH  63  64
ATOM     64  C36 UNK     0      -2.899   2.760  -0.609  0.00  0.00    +0.000 C 
ATOM     65  O9  UNK     0      -4.042   3.068  -1.047  0.00  0.00    +0.000 OA
ATOM     66  C38 UNK     0      -1.901   3.840  -0.358  0.00  0.00    +0.000 C 
ENDBRANCH  63  64
ENDBRANCH   4  63
TORSDOF 17
