REMARK  Name = C:\Users\Maximilian\Desktop\Conformers\converted_pdb\conformers_pdb\Paclitaxel_conf_55.pdb
REMARK  23 active torsions:
REMARK  status: ('A' for Active; 'I' for Inactive)
REMARK    1  A    between atoms: C17_4  and  O2_61
REMARK    2  A    between atoms: C18_5  and  C29_16
REMARK    3  A    between atoms: C20_7  and  O3_52
REMARK    4  A    between atoms: C21_8  and  O4_46
REMARK    5  A    between atoms: C22_9  and  O5_65
REMARK    6  A    between atoms: C24_11  and  C33_20
REMARK    7  A    between atoms: C24_11  and  C34_21
REMARK    8  A    between atoms: C30_17  and  O6_48
REMARK    9  A    between atoms: C31_18  and  O8_23
REMARK   10  A    between atoms: C32_19  and  C35_22
REMARK   11  A    between atoms: O8_23  and  C40_24
REMARK   12  A    between atoms: C40_24  and  C42_26
REMARK   13  A    between atoms: C42_26  and  O13_27
REMARK   14  A    between atoms: C42_26  and  C46_29
REMARK   15  A    between atoms: C46_29  and  N15_30
REMARK   16  A    between atoms: C46_29  and  C50_40
REMARK   17  A    between atoms: C53_32  and  C56_34
REMARK   18  A    between atoms: O6_48  and  C39_49
REMARK   19  A    between atoms: C39_49  and  C43_50
REMARK   20  A    between atoms: O3_52  and  C37_53
REMARK   21  A    between atoms: C37_53  and  C41_55
REMARK   22  A    between atoms: O2_61  and  C36_62
REMARK   23  A    between atoms: C36_62  and  C38_64
REMARK                            x       y       z     vdW  Elec       q    Type
REMARK                         _______ _______ _______ _____ _____    ______ ____
ROOT
ATOM      1  O1  UNK     0      -5.059   2.343   2.630  0.00  0.00    +0.000 OA
ATOM      2  O7  UNK     0       0.501   1.027   1.672  0.00  0.00    +0.000 OA
ATOM      3  C16 UNK     0      -2.537   0.991   0.915  0.00  0.00    +0.000 C 
ATOM      4  C17 UNK     0      -3.980   0.860   1.564  0.00  0.00    +0.000 C 
ATOM      5  C18 UNK     0      -1.624   2.072   1.658  0.00  0.00    +0.000 C 
ATOM      6  C19 UNK     0      -4.192   1.293   3.014  0.00  0.00    +0.000 C 
ATOM      7  C20 UNK     0      -2.647   0.932  -0.689  0.00  0.00    +0.000 C 
ATOM      8  C21 UNK     0      -1.391   0.655  -1.673  0.00  0.00    +0.000 C 
ATOM      9  C22 UNK     0      -1.633   1.682   3.181  0.00  0.00    +0.000 C 
ATOM     10  C23 UNK     0      -3.005   1.807   3.852  0.00  0.00    +0.000 C 
ATOM     11  C24 UNK     0      -0.515   1.925  -2.095  0.00  0.00    +0.000 C 
ATOM     12  C25 UNK     0      -4.933   2.011   1.265  0.00  0.00    +0.000 C 
ATOM     13  C26 UNK     0      -0.154   1.939   1.191  0.00  0.00    +0.000 C 
ATOM     14  C27 UNK     0      -0.490  -0.505  -1.095  0.00  0.00    +0.000 C 
ATOM     15  C28 UNK     0       0.681   2.030  -1.139  0.00  0.00    +0.000 C 
ATOM     16  C29 UNK     0      -2.113   3.552   1.577  0.00  0.00    +0.000 C 
ATOM     17  C30 UNK     0       0.596   2.799   0.178  0.00  0.00    +0.000 C 
ATOM     18  C31 UNK     0       1.014  -0.425  -1.458  0.00  0.00    +0.000 C 
ATOM     19  C32 UNK     0       1.548   0.975  -1.156  0.00  0.00    +0.000 C 
ATOM     20  C33 UNK     0      -1.336   3.231  -2.222  0.00  0.00    +0.000 C 
ATOM     21  C34 UNK     0       0.069   1.784  -3.552  0.00  0.00    +0.000 C 
ATOM     22  C35 UNK     0       2.954   1.118  -0.621  0.00  0.00    +0.000 C 
ENDROOT
BRANCH   8  23
ATOM     23  O4  UNK     0      -1.921   0.120  -2.874  0.00  0.00    +0.000 OA
ATOM     24  H84 UNK     0      -2.513   0.803  -3.282  0.00  0.00    +0.000 HD
ENDBRANCH   8  23
BRANCH   9  25
ATOM     25  O5  UNK     0      -0.721   2.489   3.894  0.00  0.00    +0.000 OA
ATOM     26  H85 UNK     0       0.057   1.924   4.140  0.00  0.00    +0.000 HD
ENDBRANCH   9  25
BRANCH  18  27
ATOM     27  O8  UNK     0       1.738  -1.377  -0.674  0.00  0.00    +0.000 OA
BRANCH  27  28
ATOM     28  C40 UNK     0       1.685  -2.763  -0.860  0.00  0.00    +0.000 C 
ATOM     29  O12 UNK     0       0.958  -3.258  -1.761  0.00  0.00    +0.000 OA
BRANCH  28  30
ATOM     30  C42 UNK     0       2.492  -3.676   0.037  0.00  0.00    +0.000 C 
BRANCH  30  31
ATOM     31  O13 UNK     0       2.123  -3.522   1.383  0.00  0.00    +0.000 OA
ATOM     32 1H10 UNK     0       2.136  -2.556   1.611  0.00  0.00    +0.000 HD
ENDBRANCH  30  31
BRANCH  30  33
ATOM     33  C46 UNK     0       4.018  -3.499  -0.171  0.00  0.00    +0.000 C 
BRANCH  33  34
ATOM     34  C50 UNK     0       4.814  -4.449   0.700  0.00  0.00    +0.000 A 
ATOM     35  C52 UNK     0       5.004  -4.180   2.069  0.00  0.00    +0.000 A 
ATOM     36  C55 UNK     0       5.766  -5.046   2.859  0.00  0.00    +0.000 A 
ATOM     37  C57 UNK     0       6.335  -6.191   2.298  0.00  0.00    +0.000 A 
ATOM     38  C54 UNK     0       6.150  -6.468   0.942  0.00  0.00    +0.000 A 
ATOM     39  C51 UNK     0       5.389  -5.606   0.145  0.00  0.00    +0.000 A 
ENDBRANCH  33  34
BRANCH  33  40
ATOM     40  N15 UNK     0       4.459  -2.119   0.069  0.00  0.00    +0.000 N 
ATOM     41 3H10 UNK     0       3.937  -1.532   0.758  0.00  0.00    +0.000 HD
ATOM     42  C53 UNK     0       5.669  -1.596  -0.508  0.00  0.00    +0.000 C 
ATOM     43  O14 UNK     0       6.310  -2.278  -1.354  0.00  0.00    +0.000 OA
BRANCH  42  44
ATOM     44  C56 UNK     0       6.157  -0.247  -0.146  0.00  0.00    +0.000 A 
ATOM     45  C59 UNK     0       5.951   0.275   1.143  0.00  0.00    +0.000 A 
ATOM     46  C61 UNK     0       6.374   1.569   1.453  0.00  0.00    +0.000 A 
ATOM     47  C62 UNK     0       7.012   2.350   0.487  0.00  0.00    +0.000 A 
ATOM     48  C60 UNK     0       7.241   1.834  -0.791  0.00  0.00    +0.000 A 
ATOM     49  C58 UNK     0       6.818   0.538  -1.107  0.00  0.00    +0.000 A 
ENDBRANCH  42  44
ENDBRANCH  33  40
ENDBRANCH  30  33
ENDBRANCH  28  30
ENDBRANCH  27  28
ENDBRANCH  18  27
BRANCH  17  50
ATOM     50  O6  UNK     0       0.080   4.118   0.043  0.00  0.00    +0.000 OA
BRANCH  50  51
ATOM     51  C39 UNK     0       0.811   5.177  -0.512  0.00  0.00    +0.000 C 
ATOM     52  C43 UNK     0       0.350   6.576  -0.279  0.00  0.00    +0.000 C 
ATOM     53  O11 UNK     0       1.812   4.954  -1.246  0.00  0.00    +0.000 OA
ENDBRANCH  50  51
ENDBRANCH  17  50
BRANCH   7  54
ATOM     54  O3  UNK     0      -3.549  -0.148  -0.966  0.00  0.00    +0.000 OA
BRANCH  54  55
ATOM     55  C37 UNK     0      -4.635  -0.108  -1.854  0.00  0.00    +0.000 C 
ATOM     56  O10 UNK     0      -5.056   0.995  -2.302  0.00  0.00    +0.000 OA
BRANCH  55  57
ATOM     57  C41 UNK     0      -5.253  -1.378  -2.290  0.00  0.00    +0.000 A 
ATOM     58  C45 UNK     0      -6.381  -1.384  -3.130  0.00  0.00    +0.000 A 
ATOM     59  C48 UNK     0      -6.953  -2.595  -3.536  0.00  0.00    +0.000 A 
ATOM     60  C49 UNK     0      -6.399  -3.808  -3.118  0.00  0.00    +0.000 A 
ATOM     61  C47 UNK     0      -5.274  -3.813  -2.292  0.00  0.00    +0.000 A 
ATOM     62  C44 UNK     0      -4.700  -2.607  -1.883  0.00  0.00    +0.000 A 
ENDBRANCH  55  57
ENDBRANCH  54  55
ENDBRANCH   7  54
BRANCH   4  63
ATOM     63  O2  UNK     0      -4.555  -0.446   1.328  0.00  0.00    +0.000 OA
BRANCH  63  64
ATOM     64  C36 UNK     0      -5.860  -0.883   1.623  0.00  0.00    +0.000 C 
ATOM     65  O9  UNK     0      -6.685  -0.147   2.228  0.00  0.00    +0.000 OA
ATOM     66  C38 UNK     0      -6.300  -2.225   1.155  0.00  0.00    +0.000 C 
ENDBRANCH  63  64
ENDBRANCH   4  63
TORSDOF 17
