REMARK  Name = C:\Users\Maximilian\Desktop\Conformers\converted_pdb\conformers_pdb\Paclitaxel_conf_6.pdb
REMARK  23 active torsions:
REMARK  status: ('A' for Active; 'I' for Inactive)
REMARK    1  A    between atoms: C17_4  and  O2_61
REMARK    2  A    between atoms: C18_5  and  C29_16
REMARK    3  A    between atoms: C20_7  and  O3_52
REMARK    4  A    between atoms: C21_8  and  O4_46
REMARK    5  A    between atoms: C22_9  and  O5_65
REMARK    6  A    between atoms: C24_11  and  C33_20
REMARK    7  A    between atoms: C24_11  and  C34_21
REMARK    8  A    between atoms: C30_17  and  O6_48
REMARK    9  A    between atoms: C31_18  and  O8_23
REMARK   10  A    between atoms: C32_19  and  C35_22
REMARK   11  A    between atoms: O8_23  and  C40_24
REMARK   12  A    between atoms: C40_24  and  C42_26
REMARK   13  A    between atoms: C42_26  and  O13_27
REMARK   14  A    between atoms: C42_26  and  C46_29
REMARK   15  A    between atoms: C46_29  and  N15_30
REMARK   16  A    between atoms: C46_29  and  C50_40
REMARK   17  A    between atoms: C53_32  and  C56_34
REMARK   18  A    between atoms: O6_48  and  C39_49
REMARK   19  A    between atoms: C39_49  and  C43_50
REMARK   20  A    between atoms: O3_52  and  C37_53
REMARK   21  A    between atoms: C37_53  and  C41_55
REMARK   22  A    between atoms: O2_61  and  C36_62
REMARK   23  A    between atoms: C36_62  and  C38_64
REMARK                            x       y       z     vdW  Elec       q    Type
REMARK                         _______ _______ _______ _____ _____    ______ ____
ROOT
ATOM      1  O1  UNK     0      -4.484  -3.153   0.885  0.00  0.00    +0.000 OA
ATOM      2  O7  UNK     0      -0.597   0.241   3.962  0.00  0.00    +0.000 OA
ATOM      3  C16 UNK     0      -2.430  -0.353   0.990  0.00  0.00    +0.000 C 
ATOM      4  C17 UNK     0      -2.895  -1.790   0.457  0.00  0.00    +0.000 C 
ATOM      5  C18 UNK     0      -2.547  -0.144   2.593  0.00  0.00    +0.000 C 
ATOM      6  C19 UNK     0      -3.193  -2.954   1.411  0.00  0.00    +0.000 C 
ATOM      7  C20 UNK     0      -2.971   0.801  -0.015  0.00  0.00    +0.000 C 
ATOM      8  C21 UNK     0      -1.957   1.869  -0.642  0.00  0.00    +0.000 C 
ATOM      9  C22 UNK     0      -2.372  -1.546   3.314  0.00  0.00    +0.000 C 
ATOM     10  C23 UNK     0      -3.353  -2.615   2.882  0.00  0.00    +0.000 C 
ATOM     11  C24 UNK     0      -1.564   3.023   0.345  0.00  0.00    +0.000 C 
ATOM     12  C25 UNK     0      -4.374  -1.995   0.099  0.00  0.00    +0.000 C 
ATOM     13  C26 UNK     0      -1.399   0.746   3.184  0.00  0.00    +0.000 C 
ATOM     14  C27 UNK     0      -0.692   1.129  -1.213  0.00  0.00    +0.000 C 
ATOM     15  C28 UNK     0      -0.712   2.380   1.444  0.00  0.00    +0.000 C 
ATOM     16  C29 UNK     0      -3.918   0.456   2.998  0.00  0.00    +0.000 C 
ATOM     17  C30 UNK     0      -1.150   2.212   2.899  0.00  0.00    +0.000 C 
ATOM     18  C31 UNK     0       0.616   1.238  -0.379  0.00  0.00    +0.000 C 
ATOM     19  C32 UNK     0       0.428   1.730   1.048  0.00  0.00    +0.000 C 
ATOM     20  C33 UNK     0      -2.828   3.811   0.808  0.00  0.00    +0.000 C 
ATOM     21  C34 UNK     0      -0.687   4.124  -0.349  0.00  0.00    +0.000 C 
ATOM     22  C35 UNK     0       1.589   1.495   1.998  0.00  0.00    +0.000 C 
ENDROOT
BRANCH   8  23
ATOM     23  O4  UNK     0      -2.641   2.467  -1.731  0.00  0.00    +0.000 OA
ATOM     24  H84 UNK     0      -2.018   3.022  -2.267  0.00  0.00    +0.000 HD
ENDBRANCH   8  23
BRANCH   9  25
ATOM     25  O5  UNK     0      -2.400  -1.432   4.723  0.00  0.00    +0.000 OA
ATOM     26  H85 UNK     0      -3.345  -1.375   5.024  0.00  0.00    +0.000 HD
ENDBRANCH   9  25
BRANCH  18  27
ATOM     27  O8  UNK     0       1.262  -0.037  -0.324  0.00  0.00    +0.000 OA
BRANCH  27  28
ATOM     28  C40 UNK     0       1.933  -0.624  -1.404  0.00  0.00    +0.000 C 
ATOM     29  O12 UNK     0       1.703  -0.254  -2.584  0.00  0.00    +0.000 OA
BRANCH  28  30
ATOM     30  C42 UNK     0       2.981  -1.670  -1.129  0.00  0.00    +0.000 C 
BRANCH  30  31
ATOM     31  O13 UNK     0       2.480  -2.606  -0.209  0.00  0.00    +0.000 OA
ATOM     32 1H10 UNK     0       1.814  -3.157  -0.692  0.00  0.00    +0.000 HD
ENDBRANCH  30  31
BRANCH  30  33
ATOM     33  C46 UNK     0       4.245  -0.998  -0.541  0.00  0.00    +0.000 C 
BRANCH  33  34
ATOM     34  C50 UNK     0       4.835   0.005  -1.515  0.00  0.00    +0.000 A 
ATOM     35  C52 UNK     0       4.712   1.385  -1.269  0.00  0.00    +0.000 A 
ATOM     36  C55 UNK     0       5.222   2.311  -2.184  0.00  0.00    +0.000 A 
ATOM     37  C57 UNK     0       5.852   1.872  -3.350  0.00  0.00    +0.000 A 
ATOM     38  C54 UNK     0       5.972   0.504  -3.608  0.00  0.00    +0.000 A 
ATOM     39  C51 UNK     0       5.471  -0.427  -2.694  0.00  0.00    +0.000 A 
ENDBRANCH  33  34
BRANCH  33  40
ATOM     40  N15 UNK     0       5.261  -1.996  -0.184  0.00  0.00    +0.000 N 
ATOM     41 3H10 UNK     0       5.147  -2.980  -0.514  0.00  0.00    +0.000 HD
ATOM     42  C53 UNK     0       6.371  -1.660   0.669  0.00  0.00    +0.000 C 
ATOM     43  O14 UNK     0       6.365  -0.561   1.295  0.00  0.00    +0.000 OA
BRANCH  42  44
ATOM     44  C56 UNK     0       7.518  -2.583   0.842  0.00  0.00    +0.000 A 
ATOM     45  C59 UNK     0       7.840  -3.538  -0.144  0.00  0.00    +0.000 A 
ATOM     46  C61 UNK     0       8.938  -4.388   0.028  0.00  0.00    +0.000 A 
ATOM     47  C62 UNK     0       9.725  -4.295   1.177  0.00  0.00    +0.000 A 
ATOM     48  C60 UNK     0       9.423  -3.345   2.156  0.00  0.00    +0.000 A 
ATOM     49  C58 UNK     0       8.330  -2.490   1.989  0.00  0.00    +0.000 A 
ENDBRANCH  42  44
ENDBRANCH  33  40
ENDBRANCH  30  33
ENDBRANCH  28  30
ENDBRANCH  27  28
ENDBRANCH  18  27
BRANCH  17  50
ATOM     50  O6  UNK     0      -2.266   2.984   3.334  0.00  0.00    +0.000 OA
BRANCH  50  51
ATOM     51  C39 UNK     0      -2.160   4.237   3.950  0.00  0.00    +0.000 C 
ATOM     52  C43 UNK     0      -3.363   4.835   4.591  0.00  0.00    +0.000 C 
ATOM     53  O11 UNK     0      -1.060   4.854   3.979  0.00  0.00    +0.000 OA
ENDBRANCH  50  51
ENDBRANCH  17  50
BRANCH   7  54
ATOM     54  O3  UNK     0      -3.593   0.191  -1.159  0.00  0.00    +0.000 OA
BRANCH  54  55
ATOM     55  C37 UNK     0      -4.778   0.635  -1.769  0.00  0.00    +0.000 C 
ATOM     56  O10 UNK     0      -5.472   1.543  -1.232  0.00  0.00    +0.000 OA
BRANCH  55  57
ATOM     57  C41 UNK     0      -5.203   0.036  -3.051  0.00  0.00    +0.000 A 
ATOM     58  C45 UNK     0      -6.439   0.382  -3.631  0.00  0.00    +0.000 A 
ATOM     59  C48 UNK     0      -6.827  -0.176  -4.853  0.00  0.00    +0.000 A 
ATOM     60  C49 UNK     0      -5.983  -1.076  -5.509  0.00  0.00    +0.000 A 
ATOM     61  C47 UNK     0      -4.755  -1.426  -4.942  0.00  0.00    +0.000 A 
ATOM     62  C44 UNK     0      -4.365  -0.875  -3.718  0.00  0.00    +0.000 A 
ENDBRANCH  55  57
ENDBRANCH  54  55
ENDBRANCH   7  54
BRANCH   4  63
ATOM     63  O2  UNK     0      -2.017  -2.178  -0.623  0.00  0.00    +0.000 OA
BRANCH  63  64
ATOM     64  C36 UNK     0      -2.101  -3.308  -1.455  0.00  0.00    +0.000 C 
ATOM     65  O9  UNK     0      -2.973  -4.202  -1.277  0.00  0.00    +0.000 OA
ATOM     66  C38 UNK     0      -1.148  -3.433  -2.593  0.00  0.00    +0.000 C 
ENDBRANCH  63  64
ENDBRANCH   4  63
TORSDOF 17
