REMARK  Name = C:\Users\Maximilian\Desktop\Conformers\converted_pdb\conformers_pdb\Paclitaxel_conf_19.pdb
REMARK  23 active torsions:
REMARK  status: ('A' for Active; 'I' for Inactive)
REMARK    1  A    between atoms: C17_4  and  O2_61
REMARK    2  A    between atoms: C18_5  and  C29_16
REMARK    3  A    between atoms: C20_7  and  O3_52
REMARK    4  A    between atoms: C21_8  and  O4_46
REMARK    5  A    between atoms: C22_9  and  O5_65
REMARK    6  A    between atoms: C24_11  and  C33_20
REMARK    7  A    between atoms: C24_11  and  C34_21
REMARK    8  A    between atoms: C30_17  and  O6_48
REMARK    9  A    between atoms: C31_18  and  O8_23
REMARK   10  A    between atoms: C32_19  and  C35_22
REMARK   11  A    between atoms: O8_23  and  C40_24
REMARK   12  A    between atoms: C40_24  and  C42_26
REMARK   13  A    between atoms: C42_26  and  O13_27
REMARK   14  A    between atoms: C42_26  and  C46_29
REMARK   15  A    between atoms: C46_29  and  N15_30
REMARK   16  A    between atoms: C46_29  and  C50_40
REMARK   17  A    between atoms: C53_32  and  C56_34
REMARK   18  A    between atoms: O6_48  and  C39_49
REMARK   19  A    between atoms: C39_49  and  C43_50
REMARK   20  A    between atoms: O3_52  and  C37_53
REMARK   21  A    between atoms: C37_53  and  C41_55
REMARK   22  A    between atoms: O2_61  and  C36_62
REMARK   23  A    between atoms: C36_62  and  C38_64
REMARK                            x       y       z     vdW  Elec       q    Type
REMARK                         _______ _______ _______ _____ _____    ______ ____
ROOT
ATOM      1  O1  UNK     0      -4.593   2.363   1.788  0.00  0.00    +0.000 OA
ATOM      2  O7  UNK     0       0.487   2.395  -1.027  0.00  0.00    +0.000 OA
ATOM      3  C16 UNK     0      -2.096   1.055  -0.046  0.00  0.00    +0.000 C 
ATOM      4  C17 UNK     0      -2.998   1.059   1.256  0.00  0.00    +0.000 C 
ATOM      5  C18 UNK     0      -1.844   2.500  -0.650  0.00  0.00    +0.000 C 
ATOM      6  C19 UNK     0      -3.206   2.348   2.060  0.00  0.00    +0.000 C 
ATOM      7  C20 UNK     0      -2.515  -0.147  -1.033  0.00  0.00    +0.000 C 
ATOM      8  C21 UNK     0      -1.504  -0.848  -2.086  0.00  0.00    +0.000 C 
ATOM      9  C22 UNK     0      -1.440   3.438   0.548  0.00  0.00    +0.000 C 
ATOM     10  C23 UNK     0      -2.541   3.651   1.594  0.00  0.00    +0.000 C 
ATOM     11  C24 UNK     0      -1.414  -0.166  -3.530  0.00  0.00    +0.000 C 
ATOM     12  C25 UNK     0      -4.497   1.186   1.016  0.00  0.00    +0.000 C 
ATOM     13  C26 UNK     0      -0.607   2.446  -1.577  0.00  0.00    +0.000 C 
ATOM     14  C27 UNK     0      -0.060  -1.045  -1.465  0.00  0.00    +0.000 C 
ATOM     15  C28 UNK     0      -0.299   0.899  -3.482  0.00  0.00    +0.000 C 
ATOM     16  C29 UNK     0      -3.094   3.123  -1.333  0.00  0.00    +0.000 C 
ATOM     17  C30 UNK     0      -0.567   2.359  -3.099  0.00  0.00    +0.000 C 
ATOM     18  C31 UNK     0       1.137  -0.853  -2.437  0.00  0.00    +0.000 C 
ATOM     19  C32 UNK     0       0.963   0.435  -3.235  0.00  0.00    +0.000 C 
ATOM     20  C33 UNK     0      -2.773   0.357  -4.078  0.00  0.00    +0.000 C 
ATOM     21  C34 UNK     0      -1.025  -1.221  -4.638  0.00  0.00    +0.000 C 
ATOM     22  C35 UNK     0       2.187   1.278  -3.529  0.00  0.00    +0.000 C 
ENDROOT
BRANCH   8  23
ATOM     23  O4  UNK     0      -1.982  -2.165  -2.296  0.00  0.00    +0.000 OA
ATOM     24  H84 UNK     0      -2.893  -2.115  -2.686  0.00  0.00    +0.000 HD
ENDBRANCH   8  23
BRANCH   9  25
ATOM     25  O5  UNK     0      -0.940   4.677   0.102  0.00  0.00    +0.000 OA
ATOM     26  H85 UNK     0      -1.703   5.219  -0.223  0.00  0.00    +0.000 HD
ENDBRANCH   9  25
BRANCH  18  27
ATOM     27  O8  UNK     0       2.356  -0.784  -1.690  0.00  0.00    +0.000 OA
BRANCH  27  28
ATOM     28  C40 UNK     0       2.959  -1.890  -1.082  0.00  0.00    +0.000 C 
ATOM     29  O12 UNK     0       2.361  -2.999  -1.021  0.00  0.00    +0.000 OA
BRANCH  28  30
ATOM     30  C42 UNK     0       4.315  -1.737  -0.456  0.00  0.00    +0.000 C 
BRANCH  30  31
ATOM     31  O13 UNK     0       5.056  -2.907  -0.702  0.00  0.00    +0.000 OA
ATOM     32 1H10 UNK     0       5.985  -2.631  -0.921  0.00  0.00    +0.000 HD
ENDBRANCH  30  31
BRANCH  30  33
ATOM     33  C46 UNK     0       4.195  -1.500   1.069  0.00  0.00    +0.000 C 
BRANCH  33  34
ATOM     34  C50 UNK     0       3.452  -0.211   1.364  0.00  0.00    +0.000 A 
ATOM     35  C52 UNK     0       4.061   1.034   1.120  0.00  0.00    +0.000 A 
ATOM     36  C55 UNK     0       3.379   2.220   1.403  0.00  0.00    +0.000 A 
ATOM     37  C57 UNK     0       2.082   2.177   1.917  0.00  0.00    +0.000 A 
ATOM     38  C54 UNK     0       1.456   0.945   2.138  0.00  0.00    +0.000 A 
ATOM     39  C51 UNK     0       2.136  -0.245   1.862  0.00  0.00    +0.000 A 
ENDBRANCH  33  34
BRANCH  33  40
ATOM     40  N15 UNK     0       5.523  -1.454   1.695  0.00  0.00    +0.000 N 
ATOM     41 3H10 UNK     0       6.366  -1.364   1.089  0.00  0.00    +0.000 HD
ATOM     42  C53 UNK     0       5.703  -1.610   3.112  0.00  0.00    +0.000 C 
ATOM     43  O14 UNK     0       4.706  -1.861   3.842  0.00  0.00    +0.000 OA
BRANCH  42  44
ATOM     44  C56 UNK     0       7.048  -1.505   3.731  0.00  0.00    +0.000 A 
ATOM     45  C59 UNK     0       7.328  -2.190   4.930  0.00  0.00    +0.000 A 
ATOM     46  C61 UNK     0       8.595  -2.100   5.520  0.00  0.00    +0.000 A 
ATOM     47  C62 UNK     0       9.589  -1.319   4.926  0.00  0.00    +0.000 A 
ATOM     48  C60 UNK     0       9.318  -0.628   3.741  0.00  0.00    +0.000 A 
ATOM     49  C58 UNK     0       8.055  -0.714   3.148  0.00  0.00    +0.000 A 
ENDBRANCH  42  44
ENDBRANCH  33  40
ENDBRANCH  30  33
ENDBRANCH  28  30
ENDBRANCH  27  28
ENDBRANCH  18  27
BRANCH  17  50
ATOM     50  O6  UNK     0      -1.704   2.929  -3.735  0.00  0.00    +0.000 OA
BRANCH  50  51
ATOM     51  C39 UNK     0      -1.727   3.303  -5.084  0.00  0.00    +0.000 C 
ATOM     52  C43 UNK     0      -2.977   3.871  -5.665  0.00  0.00    +0.000 C 
ATOM     53  O11 UNK     0      -0.722   3.121  -5.824  0.00  0.00    +0.000 OA
ENDBRANCH  50  51
ENDBRANCH  17  50
BRANCH   7  54
ATOM     54  O3  UNK     0      -2.998  -1.214  -0.203  0.00  0.00    +0.000 OA
BRANCH  54  55
ATOM     55  C37 UNK     0      -4.263  -1.810  -0.306  0.00  0.00    +0.000 C 
ATOM     56  O10 UNK     0      -5.111  -1.381  -1.140  0.00  0.00    +0.000 OA
BRANCH  55  57
ATOM     57  C41 UNK     0      -4.611  -2.933   0.589  0.00  0.00    +0.000 A 
ATOM     58  C45 UNK     0      -5.931  -3.412   0.660  0.00  0.00    +0.000 A 
ATOM     59  C48 UNK     0      -6.254  -4.471   1.514  0.00  0.00    +0.000 A 
ATOM     60  C49 UNK     0      -5.265  -5.062   2.301  0.00  0.00    +0.000 A 
ATOM     61  C47 UNK     0      -3.947  -4.600   2.234  0.00  0.00    +0.000 A 
ATOM     62  C44 UNK     0      -3.620  -3.542   1.381  0.00  0.00    +0.000 A 
ENDBRANCH  55  57
ENDBRANCH  54  55
ENDBRANCH   7  54
BRANCH   4  63
ATOM     63  O2  UNK     0      -2.633  -0.049   2.109  0.00  0.00    +0.000 OA
BRANCH  63  64
ATOM     64  C36 UNK     0      -3.229  -0.453   3.316  0.00  0.00    +0.000 C 
ATOM     65  O9  UNK     0      -4.266   0.107   3.764  0.00  0.00    +0.000 OA
ATOM     66  C38 UNK     0      -2.601  -1.555   4.100  0.00  0.00    +0.000 C 
ENDBRANCH  63  64
ENDBRANCH   4  63
TORSDOF 17
