REMARK  Name = C:\Users\Maximilian\Desktop\Conformers\converted_pdb\conformers_pdb\Paclitaxel_conf_9.pdb
REMARK  23 active torsions:
REMARK  status: ('A' for Active; 'I' for Inactive)
REMARK    1  A    between atoms: C17_4  and  O2_61
REMARK    2  A    between atoms: C18_5  and  C29_16
REMARK    3  A    between atoms: C20_7  and  O3_52
REMARK    4  A    between atoms: C21_8  and  O4_46
REMARK    5  A    between atoms: C22_9  and  O5_65
REMARK    6  A    between atoms: C24_11  and  C33_20
REMARK    7  A    between atoms: C24_11  and  C34_21
REMARK    8  A    between atoms: C30_17  and  O6_48
REMARK    9  A    between atoms: C31_18  and  O8_23
REMARK   10  A    between atoms: C32_19  and  C35_22
REMARK   11  A    between atoms: O8_23  and  C40_24
REMARK   12  A    between atoms: C40_24  and  C42_26
REMARK   13  A    between atoms: C42_26  and  O13_27
REMARK   14  A    between atoms: C42_26  and  C46_29
REMARK   15  A    between atoms: C46_29  and  N15_30
REMARK   16  A    between atoms: C46_29  and  C50_40
REMARK   17  A    between atoms: C53_32  and  C56_34
REMARK   18  A    between atoms: O6_48  and  C39_49
REMARK   19  A    between atoms: C39_49  and  C43_50
REMARK   20  A    between atoms: O3_52  and  C37_53
REMARK   21  A    between atoms: C37_53  and  C41_55
REMARK   22  A    between atoms: O2_61  and  C36_62
REMARK   23  A    between atoms: C36_62  and  C38_64
REMARK                            x       y       z     vdW  Elec       q    Type
REMARK                         _______ _______ _______ _____ _____    ______ ____
ROOT
ATOM      1  O1  UNK     0      -5.944   0.967  -1.786  0.00  0.00    +0.000 OA
ATOM      2  O7  UNK     0      -0.793  -1.722  -2.265  0.00  0.00    +0.000 OA
ATOM      3  C16 UNK     0      -2.839   0.127  -0.756  0.00  0.00    +0.000 C 
ATOM      4  C17 UNK     0      -3.904   1.204  -1.224  0.00  0.00    +0.000 C 
ATOM      5  C18 UNK     0      -2.993  -1.277  -1.487  0.00  0.00    +0.000 C 
ATOM      6  C19 UNK     0      -4.728   1.003  -2.501  0.00  0.00    +0.000 C 
ATOM      7  C20 UNK     0      -2.671   0.165   0.848  0.00  0.00    +0.000 C 
ATOM      8  C21 UNK     0      -1.270  -0.121   1.622  0.00  0.00    +0.000 C 
ATOM      9  C22 UNK     0      -3.248  -1.010  -3.015  0.00  0.00    +0.000 C 
ATOM     10  C23 UNK     0      -4.561  -0.294  -3.304  0.00  0.00    +0.000 C 
ATOM     11  C24 UNK     0      -0.983  -1.648   1.931  0.00  0.00    +0.000 C 
ATOM     12  C25 UNK     0      -5.273   1.102  -0.556  0.00  0.00    +0.000 C 
ATOM     13  C26 UNK     0      -1.646  -2.031  -1.434  0.00  0.00    +0.000 C 
ATOM     14  C27 UNK     0      -0.017   0.541   0.893  0.00  0.00    +0.000 C 
ATOM     15  C28 UNK     0      -0.377  -2.290   0.664  0.00  0.00    +0.000 C 
ATOM     16  C29 UNK     0      -4.175  -2.142  -0.957  0.00  0.00    +0.000 C 
ATOM     17  C30 UNK     0      -1.191  -3.040  -0.393  0.00  0.00    +0.000 C 
ATOM     18  C31 UNK     0       1.219  -0.370   0.612  0.00  0.00    +0.000 C 
ATOM     19  C32 UNK     0       0.812  -1.780   0.235  0.00  0.00    +0.000 C 
ATOM     20  C33 UNK     0      -2.220  -2.379   2.532  0.00  0.00    +0.000 C 
ATOM     21  C34 UNK     0       0.069  -1.786   3.098  0.00  0.00    +0.000 C 
ATOM     22  C35 UNK     0       1.778  -2.608  -0.584  0.00  0.00    +0.000 C 
ENDROOT
BRANCH   8  23
ATOM     23  O4  UNK     0      -1.389   0.479   2.907  0.00  0.00    +0.000 OA
ATOM     24  H84 UNK     0      -1.291   1.465   2.832  0.00  0.00    +0.000 HD
ENDBRANCH   8  23
BRANCH   9  25
ATOM     25  O5  UNK     0      -3.247  -2.232  -3.720  0.00  0.00    +0.000 OA
ATOM     26  H85 UNK     0      -2.682  -2.114  -4.528  0.00  0.00    +0.000 HD
ENDBRANCH   9  25
BRANCH  18  27
ATOM     27  O8  UNK     0       2.000   0.201  -0.448  0.00  0.00    +0.000 OA
BRANCH  27  28
ATOM     28  C40 UNK     0       2.806   1.335  -0.268  0.00  0.00    +0.000 C 
ATOM     29  O12 UNK     0       2.944   1.844   0.880  0.00  0.00    +0.000 OA
BRANCH  28  30
ATOM     30  C42 UNK     0       3.480   1.987  -1.450  0.00  0.00    +0.000 C 
BRANCH  30  31
ATOM     31  O13 UNK     0       2.603   1.992  -2.548  0.00  0.00    +0.000 OA
ATOM     32 1H10 UNK     0       1.856   2.607  -2.320  0.00  0.00    +0.000 HD
ENDBRANCH  30  31
BRANCH  30  33
ATOM     33  C46 UNK     0       4.824   1.333  -1.865  0.00  0.00    +0.000 C 
BRANCH  33  34
ATOM     34  C50 UNK     0       4.661  -0.034  -2.505  0.00  0.00    +0.000 A 
ATOM     35  C52 UNK     0       4.794  -1.219  -1.753  0.00  0.00    +0.000 A 
ATOM     36  C55 UNK     0       4.680  -2.467  -2.375  0.00  0.00    +0.000 A 
ATOM     37  C57 UNK     0       4.389  -2.550  -3.741  0.00  0.00    +0.000 A 
ATOM     38  C54 UNK     0       4.249  -1.383  -4.495  0.00  0.00    +0.000 A 
ATOM     39  C51 UNK     0       4.393  -0.133  -3.885  0.00  0.00    +0.000 A 
ENDBRANCH  33  34
BRANCH  33  40
ATOM     40  N15 UNK     0       5.780   1.277  -0.749  0.00  0.00    +0.000 N 
ATOM     41 3H10 UNK     0       5.415   1.222   0.228  0.00  0.00    +0.000 HD
ATOM     42  C53 UNK     0       7.191   1.107  -0.970  0.00  0.00    +0.000 C 
ATOM     43  O14 UNK     0       7.693   1.477  -2.073  0.00  0.00    +0.000 OA
BRANCH  42  44
ATOM     44  C56 UNK     0       8.070   0.494   0.059  0.00  0.00    +0.000 A 
ATOM     45  C59 UNK     0       7.543  -0.300   1.100  0.00  0.00    +0.000 A 
ATOM     46  C61 UNK     0       8.394  -0.906   2.026  0.00  0.00    +0.000 A 
ATOM     47  C62 UNK     0       9.778  -0.744   1.922  0.00  0.00    +0.000 A 
ATOM     48  C60 UNK     0      10.313   0.032   0.895  0.00  0.00    +0.000 A 
ATOM     49  C58 UNK     0       9.466   0.644  -0.034  0.00  0.00    +0.000 A 
ENDBRANCH  42  44
ENDBRANCH  33  40
ENDBRANCH  30  33
ENDBRANCH  28  30
ENDBRANCH  27  28
ENDBRANCH  18  27
BRANCH  17  50
ATOM     50  O6  UNK     0      -2.234  -3.862   0.128  0.00  0.00    +0.000 OA
BRANCH  50  51
ATOM     51  C39 UNK     0      -1.984  -5.064   0.799  0.00  0.00    +0.000 C 
ATOM     52  C43 UNK     0      -3.126  -5.880   1.303  0.00  0.00    +0.000 C 
ATOM     53  O11 UNK     0      -0.803  -5.454   0.989  0.00  0.00    +0.000 OA
ENDBRANCH  50  51
ENDBRANCH  17  50
BRANCH   7  54
ATOM     54  O3  UNK     0      -3.114   1.459   1.297  0.00  0.00    +0.000 OA
BRANCH  54  55
ATOM     55  C37 UNK     0      -3.985   1.687   2.375  0.00  0.00    +0.000 C 
ATOM     56  O10 UNK     0      -4.505   0.713   2.990  0.00  0.00    +0.000 OA
BRANCH  55  57
ATOM     57  C41 UNK     0      -4.277   3.075   2.796  0.00  0.00    +0.000 A 
ATOM     58  C45 UNK     0      -3.523   4.143   2.280  0.00  0.00    +0.000 A 
ATOM     59  C48 UNK     0      -3.808   5.461   2.658  0.00  0.00    +0.000 A 
ATOM     60  C49 UNK     0      -4.851   5.721   3.551  0.00  0.00    +0.000 A 
ATOM     61  C47 UNK     0      -5.610   4.667   4.070  0.00  0.00    +0.000 A 
ATOM     62  C44 UNK     0      -5.325   3.351   3.697  0.00  0.00    +0.000 A 
ENDBRANCH  55  57
ENDBRANCH  54  55
ENDBRANCH   7  54
BRANCH   4  63
ATOM     63  O2  UNK     0      -3.326   2.525  -1.146  0.00  0.00    +0.000 OA
BRANCH  63  64
ATOM     64  C36 UNK     0      -3.957   3.764  -1.349  0.00  0.00    +0.000 C 
ATOM     65  O9  UNK     0      -5.171   3.844  -1.679  0.00  0.00    +0.000 OA
ATOM     66  C38 UNK     0      -3.157   5.011  -1.199  0.00  0.00    +0.000 C 
ENDBRANCH  63  64
ENDBRANCH   4  63
TORSDOF 17
