REMARK  Name = C:\Users\Maximilian\Desktop\Conformers\converted_pdb\conformers_pdb\Parthenolide_conf_6.pdb
REMARK  2 active torsions:
REMARK  status: ('A' for Active; 'I' for Inactive)
REMARK    1  A    between atoms: C4_4  and  C9_9
REMARK    2  A    between atoms: C16_16  and  C18_18
REMARK                            x       y       z     vdW  Elec       q    Type
REMARK                         _______ _______ _______ _____ _____    ______ ____
ROOT
ATOM      1  O1  UNK     0       0.954   2.849  -0.106  0.00  0.00    +0.000 OA
ATOM      2  O2  UNK     0       3.009   0.686  -0.395  0.00  0.00    +0.000 OA
ATOM      3  O3  UNK     0       4.882  -0.542   0.223  0.00  0.00    +0.000 OA
ATOM      4  C4  UNK     0      -0.312   2.294   0.181  0.00  0.00    +0.000 C 
ATOM      5  C5  UNK     0       0.963   1.578   0.506  0.00  0.00    +0.000 C 
ATOM      6  C6  UNK     0       1.591   0.528  -0.428  0.00  0.00    +0.000 C 
ATOM      7  C7  UNK     0       1.304  -0.921   0.091  0.00  0.00    +0.000 C 
ATOM      8  C8  UNK     0      -1.112   2.072  -1.117  0.00  0.00    +0.000 C 
ATOM      9  C9  UNK     0      -0.993   3.068   1.312  0.00  0.00    +0.000 C 
ATOM     10  C10 UNK     0       0.608  -1.816  -0.964  0.00  0.00    +0.000 C 
ATOM     11  C11 UNK     0      -2.397   1.242  -0.932  0.00  0.00    +0.000 C 
ATOM     12  C12 UNK     0       2.667  -1.452   0.422  0.00  0.00    +0.000 C 
ATOM     13  C13 UNK     0      -0.827  -1.384  -1.330  0.00  0.00    +0.000 C 
ATOM     14  C14 UNK     0       3.634  -0.440   0.088  0.00  0.00    +0.000 C 
ATOM     15  C15 UNK     0      -2.311   0.111   0.071  0.00  0.00    +0.000 C 
ATOM     16  C16 UNK     0      -1.686  -1.075  -0.116  0.00  0.00    +0.000 C 
ATOM     17  C17 UNK     0       2.935  -2.621   1.004  0.00  0.00    +0.000 C 
ATOM     18  C18 UNK     0      -1.900  -2.152   0.919  0.00  0.00    +0.000 C 
ENDROOT
TORSDOF 0
