REMARK  Name = C:\Users\Maximilian\Desktop\Conformers\converted_pdb\conformers_pdb\Parthenolide_conf_16.pdb
REMARK  2 active torsions:
REMARK  status: ('A' for Active; 'I' for Inactive)
REMARK    1  A    between atoms: C4_4  and  C9_9
REMARK    2  A    between atoms: C16_16  and  C18_18
REMARK                            x       y       z     vdW  Elec       q    Type
REMARK                         _______ _______ _______ _____ _____    ______ ____
ROOT
ATOM      1  O1  UNK     0      -1.367   0.789  -0.763  0.00  0.00    +0.000 OA
ATOM      2  O2  UNK     0       1.956   1.023  -2.246  0.00  0.00    +0.000 OA
ATOM      3  O3  UNK     0       4.223   0.500  -2.290  0.00  0.00    +0.000 OA
ATOM      4  C4  UNK     0      -0.908   2.014  -0.250  0.00  0.00    +0.000 C 
ATOM      5  C5  UNK     0      -0.361   1.420  -1.527  0.00  0.00    +0.000 C 
ATOM      6  C6  UNK     0       0.758   0.385  -1.814  0.00  0.00    +0.000 C 
ATOM      7  C7  UNK     0       1.201  -0.654  -0.739  0.00  0.00    +0.000 C 
ATOM      8  C8  UNK     0      -0.243   1.911   1.143  0.00  0.00    +0.000 C 
ATOM      9  C9  UNK     0      -1.979   3.099  -0.408  0.00  0.00    +0.000 C 
ATOM     10  C10 UNK     0       0.345  -1.956  -0.730  0.00  0.00    +0.000 C 
ATOM     11  C11 UNK     0      -0.985   0.981   2.138  0.00  0.00    +0.000 C 
ATOM     12  C12 UNK     0       2.650  -0.860  -1.074  0.00  0.00    +0.000 C 
ATOM     13  C13 UNK     0      -0.045  -2.420   0.691  0.00  0.00    +0.000 C 
ATOM     14  C14 UNK     0       3.047   0.244  -1.920  0.00  0.00    +0.000 C 
ATOM     15  C15 UNK     0      -0.421  -0.412   2.071  0.00  0.00    +0.000 C 
ATOM     16  C16 UNK     0      -0.968  -1.414   1.349  0.00  0.00    +0.000 C 
ATOM     17  C17 UNK     0       3.469  -1.767  -0.541  0.00  0.00    +0.000 C 
ATOM     18  C18 UNK     0      -2.457  -1.506   1.103  0.00  0.00    +0.000 C 
ENDROOT
TORSDOF 0
