REMARK  Name = C:\Users\Maximilian\Desktop\Conformers\converted_pdb\conformers_pdb\Parthenolide_conf_1.pdb
REMARK  2 active torsions:
REMARK  status: ('A' for Active; 'I' for Inactive)
REMARK    1  A    between atoms: C4_4  and  C9_9
REMARK    2  A    between atoms: C16_16  and  C18_18
REMARK                            x       y       z     vdW  Elec       q    Type
REMARK                         _______ _______ _______ _____ _____    ______ ____
ROOT
ATOM      1  O1  UNK     0      -2.046   1.918   0.497  0.00  0.00    +0.000 OA
ATOM      2  O2  UNK     0      -2.387  -0.835   1.065  0.00  0.00    +0.000 OA
ATOM      3  O3  UNK     0      -3.891  -2.581   0.761  0.00  0.00    +0.000 OA
ATOM      4  C4  UNK     0      -0.840   2.227  -0.160  0.00  0.00    +0.000 C 
ATOM      5  C5  UNK     0      -1.530   0.909  -0.351  0.00  0.00    +0.000 C 
ATOM      6  C6  UNK     0      -1.184  -0.353   0.466  0.00  0.00    +0.000 C 
ATOM      7  C7  UNK     0      -0.685  -1.507  -0.478  0.00  0.00    +0.000 C 
ATOM      8  C8  UNK     0       0.308   2.454   0.846  0.00  0.00    +0.000 C 
ATOM      9  C9  UNK     0      -1.052   3.280  -1.249  0.00  0.00    +0.000 C 
ATOM     10  C10 UNK     0       0.550  -2.258   0.088  0.00  0.00    +0.000 C 
ATOM     11  C11 UNK     0       1.688   2.214   0.216  0.00  0.00    +0.000 C 
ATOM     12  C12 UNK     0      -1.867  -2.432  -0.526  0.00  0.00    +0.000 C 
ATOM     13  C13 UNK     0       1.895  -1.628  -0.313  0.00  0.00    +0.000 C 
ATOM     14  C14 UNK     0      -2.815  -1.997   0.466  0.00  0.00    +0.000 C 
ATOM     15  C15 UNK     0       1.786   0.833  -0.377  0.00  0.00    +0.000 C 
ATOM     16  C16 UNK     0       2.097  -0.276   0.327  0.00  0.00    +0.000 C 
ATOM     17  C17 UNK     0      -2.027  -3.457  -1.363  0.00  0.00    +0.000 C 
ATOM     18  C18 UNK     0       2.565  -0.212   1.761  0.00  0.00    +0.000 C 
ENDROOT
TORSDOF 0
