REMARK  Name = C:\Users\Maximilian\Desktop\Conformers\converted_pdb\conformers_pdb\Parthenolide_conf_13.pdb
REMARK  2 active torsions:
REMARK  status: ('A' for Active; 'I' for Inactive)
REMARK    1  A    between atoms: C4_4  and  C9_9
REMARK    2  A    between atoms: C16_16  and  C18_18
REMARK                            x       y       z     vdW  Elec       q    Type
REMARK                         _______ _______ _______ _____ _____    ______ ____
ROOT
ATOM      1  O1  UNK     0      -0.946  -2.968  -0.052  0.00  0.00    +0.000 OA
ATOM      2  O2  UNK     0       2.164  -2.390  -0.337  0.00  0.00    +0.000 OA
ATOM      3  O3  UNK     0       4.395  -2.053  -0.897  0.00  0.00    +0.000 OA
ATOM      4  C4  UNK     0      -1.568  -1.702  -0.123  0.00  0.00    +0.000 C 
ATOM      5  C5  UNK     0      -0.196  -1.948  -0.671  0.00  0.00    +0.000 C 
ATOM      6  C6  UNK     0       1.066  -1.617   0.143  0.00  0.00    +0.000 C 
ATOM      7  C7  UNK     0       1.490  -0.122  -0.031  0.00  0.00    +0.000 C 
ATOM      8  C8  UNK     0      -1.834  -1.144   1.297  0.00  0.00    +0.000 C 
ATOM      9  C9  UNK     0      -2.726  -1.724  -1.127  0.00  0.00    +0.000 C 
ATOM     10  C10 UNK     0       1.174   0.739   1.227  0.00  0.00    +0.000 C 
ATOM     11  C11 UNK     0      -2.155   0.371   1.384  0.00  0.00    +0.000 C 
ATOM     12  C12 UNK     0       2.957  -0.212  -0.332  0.00  0.00    +0.000 C 
ATOM     13  C13 UNK     0       0.411   2.043   0.925  0.00  0.00    +0.000 C 
ATOM     14  C14 UNK     0       3.274  -1.601  -0.544  0.00  0.00    +0.000 C 
ATOM     15  C15 UNK     0      -1.842   1.172   0.143  0.00  0.00    +0.000 C 
ATOM     16  C16 UNK     0      -0.725   1.901  -0.079  0.00  0.00    +0.000 C 
ATOM     17  C17 UNK     0       3.783   0.816  -0.526  0.00  0.00    +0.000 C 
ATOM     18  C18 UNK     0      -0.620   2.630  -1.397  0.00  0.00    +0.000 C 
ENDROOT
TORSDOF 0
