REMARK  Name = C:\Users\Maximilian\Desktop\Conformers\converted_pdb\conformers_pdb\Parthenolide_conf_20.pdb
REMARK  2 active torsions:
REMARK  status: ('A' for Active; 'I' for Inactive)
REMARK    1  A    between atoms: C4_4  and  C9_9
REMARK    2  A    between atoms: C16_16  and  C18_18
REMARK                            x       y       z     vdW  Elec       q    Type
REMARK                         _______ _______ _______ _____ _____    ______ ____
ROOT
ATOM      1  O1  UNK     0      -0.523  -2.468   1.135  0.00  0.00    +0.000 OA
ATOM      2  O2  UNK     0       0.772  -0.252   2.497  0.00  0.00    +0.000 OA
ATOM      3  O3  UNK     0       2.663   0.256   3.751  0.00  0.00    +0.000 OA
ATOM      4  C4  UNK     0      -0.508  -2.419  -0.277  0.00  0.00    +0.000 C 
ATOM      5  C5  UNK     0       0.479  -1.651   0.576  0.00  0.00    +0.000 C 
ATOM      6  C6  UNK     0       0.366  -0.214   1.128  0.00  0.00    +0.000 C 
ATOM      7  C7  UNK     0       1.410   0.724   0.410  0.00  0.00    +0.000 C 
ATOM      8  C8  UNK     0      -1.929  -2.049  -0.801  0.00  0.00    +0.000 C 
ATOM      9  C9  UNK     0       0.019  -3.747  -0.835  0.00  0.00    +0.000 C 
ATOM     10  C10 UNK     0       0.878   2.158   0.126  0.00  0.00    +0.000 C 
ATOM     11  C11 UNK     0      -2.359  -0.582  -0.814  0.00  0.00    +0.000 C 
ATOM     12  C12 UNK     0       2.524   0.802   1.414  0.00  0.00    +0.000 C 
ATOM     13  C13 UNK     0       0.115   2.296  -1.205  0.00  0.00    +0.000 C 
ATOM     14  C14 UNK     0       2.038   0.264   2.658  0.00  0.00    +0.000 C 
ATOM     15  C15 UNK     0      -1.299   0.308  -1.402  0.00  0.00    +0.000 C 
ATOM     16  C16 UNK     0      -1.228   1.622  -1.117  0.00  0.00    +0.000 C 
ATOM     17  C17 UNK     0       3.752   1.270   1.192  0.00  0.00    +0.000 C 
ATOM     18  C18 UNK     0      -2.376   2.362  -0.472  0.00  0.00    +0.000 C 
ENDROOT
TORSDOF 0
