REMARK  Name = C:\Users\Maximilian\Desktop\Conformers\converted_pdb\conformers_pdb\Parthenolide_conf_7.pdb
REMARK  2 active torsions:
REMARK  status: ('A' for Active; 'I' for Inactive)
REMARK    1  A    between atoms: C4_4  and  C9_9
REMARK    2  A    between atoms: C16_16  and  C18_18
REMARK                            x       y       z     vdW  Elec       q    Type
REMARK                         _______ _______ _______ _____ _____    ______ ____
ROOT
ATOM      1  O1  UNK     0      -0.504   2.734   1.193  0.00  0.00    +0.000 OA
ATOM      2  O2  UNK     0      -1.788   0.271   2.049  0.00  0.00    +0.000 OA
ATOM      3  O3  UNK     0      -3.872  -0.635   2.538  0.00  0.00    +0.000 OA
ATOM      4  C4  UNK     0       0.170   2.567  -0.033  0.00  0.00    +0.000 C 
ATOM      5  C5  UNK     0      -1.031   1.754   0.320  0.00  0.00    +0.000 C 
ATOM      6  C6  UNK     0      -0.902   0.345   0.932  0.00  0.00    +0.000 C 
ATOM      7  C7  UNK     0      -1.409  -0.734  -0.085  0.00  0.00    +0.000 C 
ATOM      8  C8  UNK     0       1.598   2.032   0.159  0.00  0.00    +0.000 C 
ATOM      9  C9  UNK     0      -0.041   3.755  -0.971  0.00  0.00    +0.000 C 
ATOM     10  C10 UNK     0      -0.531  -2.010  -0.095  0.00  0.00    +0.000 C 
ATOM     11  C11 UNK     0       1.938   0.953  -0.886  0.00  0.00    +0.000 C 
ATOM     12  C12 UNK     0      -2.774  -1.070   0.444  0.00  0.00    +0.000 C 
ATOM     13  C13 UNK     0       0.721  -1.905  -0.988  0.00  0.00    +0.000 C 
ATOM     14  C14 UNK     0      -2.898  -0.487   1.754  0.00  0.00    +0.000 C 
ATOM     15  C15 UNK     0       2.509  -0.272  -0.215  0.00  0.00    +0.000 C 
ATOM     16  C16 UNK     0       1.967  -1.512  -0.212  0.00  0.00    +0.000 C 
ATOM     17  C17 UNK     0      -3.713  -1.767  -0.194  0.00  0.00    +0.000 C 
ATOM     18  C18 UNK     0       2.651  -2.575   0.610  0.00  0.00    +0.000 C 
ENDROOT
TORSDOF 0
