REMARK  Name = C:\Users\Maximilian\Desktop\Conformers\converted_pdb\conformers_pdb\Parthenolide_conf_11.pdb
REMARK  2 active torsions:
REMARK  status: ('A' for Active; 'I' for Inactive)
REMARK    1  A    between atoms: C4_4  and  C9_9
REMARK    2  A    between atoms: C16_16  and  C18_18
REMARK                            x       y       z     vdW  Elec       q    Type
REMARK                         _______ _______ _______ _____ _____    ______ ____
ROOT
ATOM      1  O1  UNK     0       2.300  -1.121   1.614  0.00  0.00    +0.000 OA
ATOM      2  O2  UNK     0       0.844   1.315   2.241  0.00  0.00    +0.000 OA
ATOM      3  O3  UNK     0       1.166   3.547   2.811  0.00  0.00    +0.000 OA
ATOM      4  C4  UNK     0       2.007  -1.579   0.314  0.00  0.00    +0.000 C 
ATOM      5  C5  UNK     0       1.943  -0.130   0.671  0.00  0.00    +0.000 C 
ATOM      6  C6  UNK     0       0.614   0.548   1.060  0.00  0.00    +0.000 C 
ATOM      7  C7  UNK     0       0.191   1.579  -0.042  0.00  0.00    +0.000 C 
ATOM      8  C8  UNK     0       0.751  -2.464   0.279  0.00  0.00    +0.000 C 
ATOM      9  C9  UNK     0       3.259  -2.062  -0.419  0.00  0.00    +0.000 C 
ATOM     10  C10 UNK     0      -1.332   1.566  -0.324  0.00  0.00    +0.000 C 
ATOM     11  C11 UNK     0      -0.133  -2.134  -0.938  0.00  0.00    +0.000 C 
ATOM     12  C12 UNK     0       0.575   2.894   0.574  0.00  0.00    +0.000 C 
ATOM     13  C13 UNK     0      -1.777   0.475  -1.318  0.00  0.00    +0.000 C 
ATOM     14  C14 UNK     0       0.889   2.662   1.959  0.00  0.00    +0.000 C 
ATOM     15  C15 UNK     0      -1.565  -1.925  -0.510  0.00  0.00    +0.000 C 
ATOM     16  C16 UNK     0      -2.279  -0.781  -0.628  0.00  0.00    +0.000 C 
ATOM     17  C17 UNK     0       0.634   4.068  -0.055  0.00  0.00    +0.000 C 
ATOM     18  C18 UNK     0      -3.667  -0.757  -0.040  0.00  0.00    +0.000 C 
ENDROOT
TORSDOF 0
