REMARK  Name = C:\Users\Maximilian\Desktop\Conformers\converted_pdb\conformers_pdb\Parthenolide_conf_21.pdb
REMARK  2 active torsions:
REMARK  status: ('A' for Active; 'I' for Inactive)
REMARK    1  A    between atoms: C4_4  and  C9_9
REMARK    2  A    between atoms: C16_16  and  C18_18
REMARK                            x       y       z     vdW  Elec       q    Type
REMARK                         _______ _______ _______ _____ _____    ______ ____
ROOT
ATOM      1  O1  UNK     0      -1.289  -2.610   0.427  0.00  0.00    +0.000 OA
ATOM      2  O2  UNK     0       2.109  -2.510   0.471  0.00  0.00    +0.000 OA
ATOM      3  O3  UNK     0       4.343  -2.451  -0.161  0.00  0.00    +0.000 OA
ATOM      4  C4  UNK     0      -1.490  -1.885  -0.760  0.00  0.00    +0.000 C 
ATOM      5  C5  UNK     0      -0.141  -2.433  -0.388  0.00  0.00    +0.000 C 
ATOM      6  C6  UNK     0       0.952  -1.675   0.405  0.00  0.00    +0.000 C 
ATOM      7  C7  UNK     0       1.425  -0.345  -0.285  0.00  0.00    +0.000 C 
ATOM      8  C8  UNK     0      -1.889  -0.400  -0.570  0.00  0.00    +0.000 C 
ATOM      9  C9  UNK     0      -2.278  -2.690  -1.796  0.00  0.00    +0.000 C 
ATOM     10  C10 UNK     0       1.248   0.918   0.622  0.00  0.00    +0.000 C 
ATOM     11  C11 UNK     0      -1.913   0.107   0.880  0.00  0.00    +0.000 C 
ATOM     12  C12 UNK     0       2.873  -0.601  -0.584  0.00  0.00    +0.000 C 
ATOM     13  C13 UNK     0       0.413   2.036  -0.046  0.00  0.00    +0.000 C 
ATOM     14  C14 UNK     0       3.210  -1.908  -0.091  0.00  0.00    +0.000 C 
ATOM     15  C15 UNK     0      -1.892   1.613   0.996  0.00  0.00    +0.000 C 
ATOM     16  C16 UNK     0      -0.854   2.443   0.706  0.00  0.00    +0.000 C 
ATOM     17  C17 UNK     0       3.686   0.210  -1.261  0.00  0.00    +0.000 C 
ATOM     18  C18 UNK     0      -1.023   3.898   1.078  0.00  0.00    +0.000 C 
ENDROOT
TORSDOF 0
