REMARK  Name = C:\Users\Maximilian\Desktop\Conformers\converted_pdb\conformers_pdb\Parthenolide_conf_17.pdb
REMARK  2 active torsions:
REMARK  status: ('A' for Active; 'I' for Inactive)
REMARK    1  A    between atoms: C4_4  and  C9_9
REMARK    2  A    between atoms: C16_16  and  C18_18
REMARK                            x       y       z     vdW  Elec       q    Type
REMARK                         _______ _______ _______ _____ _____    ______ ____
ROOT
ATOM      1  O1  UNK     0       0.677   2.613  -1.367  0.00  0.00    +0.000 OA
ATOM      2  O2  UNK     0       2.125   0.117  -1.714  0.00  0.00    +0.000 OA
ATOM      3  O3  UNK     0       4.275  -0.768  -1.723  0.00  0.00    +0.000 OA
ATOM      4  C4  UNK     0      -0.207   2.550  -0.271  0.00  0.00    +0.000 C 
ATOM      5  C5  UNK     0       1.049   1.744  -0.315  0.00  0.00    +0.000 C 
ATOM      6  C6  UNK     0       1.051   0.276  -0.787  0.00  0.00    +0.000 C 
ATOM      7  C7  UNK     0       1.380  -0.676   0.413  0.00  0.00    +0.000 C 
ATOM      8  C8  UNK     0      -1.570   1.953  -0.657  0.00  0.00    +0.000 C 
ATOM      9  C9  UNK     0      -0.184   3.834   0.559  0.00  0.00    +0.000 C 
ATOM     10  C10 UNK     0       0.531  -1.972   0.402  0.00  0.00    +0.000 C 
ATOM     11  C11 UNK     0      -2.079   0.976   0.419  0.00  0.00    +0.000 C 
ATOM     12  C12 UNK     0       2.822  -1.021   0.175  0.00  0.00    +0.000 C 
ATOM     13  C13 UNK     0      -0.863  -1.815   1.040  0.00  0.00    +0.000 C 
ATOM     14  C14 UNK     0       3.174  -0.571  -1.146  0.00  0.00    +0.000 C 
ATOM     15  C15 UNK     0      -2.503  -0.329  -0.210  0.00  0.00    +0.000 C 
ATOM     16  C16 UNK     0      -1.953  -1.544   0.017  0.00  0.00    +0.000 C 
ATOM     17  C17 UNK     0       3.640  -1.619   1.040  0.00  0.00    +0.000 C 
ATOM     18  C18 UNK     0      -2.462  -2.707  -0.797  0.00  0.00    +0.000 C 
ENDROOT
TORSDOF 0
