REMARK  Name = C:\Users\Maximilian\Desktop\Conformers\converted_pdb\conformers_pdb\Parthenolide_conf_22.pdb
REMARK  2 active torsions:
REMARK  status: ('A' for Active; 'I' for Inactive)
REMARK    1  A    between atoms: C4_4  and  C9_9
REMARK    2  A    between atoms: C16_16  and  C18_18
REMARK                            x       y       z     vdW  Elec       q    Type
REMARK                         _______ _______ _______ _____ _____    ______ ____
ROOT
ATOM      1  O1  UNK     0      -1.781   2.110   0.886  0.00  0.00    +0.000 OA
ATOM      2  O2  UNK     0      -2.726  -1.147   0.810  0.00  0.00    +0.000 OA
ATOM      3  O3  UNK     0      -3.667  -2.903  -0.394  0.00  0.00    +0.000 OA
ATOM      4  C4  UNK     0      -1.217   2.179  -0.398  0.00  0.00    +0.000 C 
ATOM      5  C5  UNK     0      -2.054   1.009   0.031  0.00  0.00    +0.000 C 
ATOM      6  C6  UNK     0      -1.577  -0.303   0.710  0.00  0.00    +0.000 C 
ATOM      7  C7  UNK     0      -0.558  -1.127  -0.150  0.00  0.00    +0.000 C 
ATOM      8  C8  UNK     0       0.328   2.160  -0.455  0.00  0.00    +0.000 C 
ATOM      9  C9  UNK     0      -1.924   3.215  -1.277  0.00  0.00    +0.000 C 
ATOM     10  C10 UNK     0       0.431  -1.951   0.716  0.00  0.00    +0.000 C 
ATOM     11  C11 UNK     0       1.081   1.829   0.847  0.00  0.00    +0.000 C 
ATOM     12  C12 UNK     0      -1.453  -2.092  -0.870  0.00  0.00    +0.000 C 
ATOM     13  C13 UNK     0       1.407  -1.145   1.590  0.00  0.00    +0.000 C 
ATOM     14  C14 UNK     0      -2.712  -2.114  -0.171  0.00  0.00    +0.000 C 
ATOM     15  C15 UNK     0       2.290   0.980   0.535  0.00  0.00    +0.000 C 
ATOM     16  C16 UNK     0       2.412  -0.343   0.785  0.00  0.00    +0.000 C 
ATOM     17  C17 UNK     0      -1.127  -2.829  -1.931  0.00  0.00    +0.000 C 
ATOM     18  C18 UNK     0       3.632  -1.053   0.256  0.00  0.00    +0.000 C 
ENDROOT
TORSDOF 0
