REMARK  Name = C:\Users\Maximilian\Desktop\Conformers\converted_pdb\conformers_pdb\Parthenolide_conf_18.pdb
REMARK  2 active torsions:
REMARK  status: ('A' for Active; 'I' for Inactive)
REMARK    1  A    between atoms: C4_4  and  C9_9
REMARK    2  A    between atoms: C16_16  and  C18_18
REMARK                            x       y       z     vdW  Elec       q    Type
REMARK                         _______ _______ _______ _____ _____    ______ ____
ROOT
ATOM      1  O1  UNK     0      -0.643   2.059  -1.152  0.00  0.00    +0.000 OA
ATOM      2  O2  UNK     0       2.223   0.398  -1.682  0.00  0.00    +0.000 OA
ATOM      3  O3  UNK     0       4.456  -0.212  -1.486  0.00  0.00    +0.000 OA
ATOM      4  C4  UNK     0      -0.561   2.261   0.233  0.00  0.00    +0.000 C 
ATOM      5  C5  UNK     0       0.625   1.802  -0.568  0.00  0.00    +0.000 C 
ATOM      6  C6  UNK     0       1.027   0.344  -0.904  0.00  0.00    +0.000 C 
ATOM      7  C7  UNK     0       1.370  -0.553   0.342  0.00  0.00    +0.000 C 
ATOM      8  C8  UNK     0      -1.395   1.296   1.106  0.00  0.00    +0.000 C 
ATOM      9  C9  UNK     0      -0.606   3.750   0.587  0.00  0.00    +0.000 C 
ATOM     10  C10 UNK     0       0.679  -1.947   0.300  0.00  0.00    +0.000 C 
ATOM     11  C11 UNK     0      -2.597   0.601   0.447  0.00  0.00    +0.000 C 
ATOM     12  C12 UNK     0       2.857  -0.739   0.226  0.00  0.00    +0.000 C 
ATOM     13  C13 UNK     0      -0.852  -1.973   0.522  0.00  0.00    +0.000 C 
ATOM     14  C14 UNK     0       3.283  -0.184  -1.029  0.00  0.00    +0.000 C 
ATOM     15  C15 UNK     0      -2.297  -0.302  -0.725  0.00  0.00    +0.000 C 
ATOM     16  C16 UNK     0      -1.633  -1.481  -0.682  0.00  0.00    +0.000 C 
ATOM     17  C17 UNK     0       3.654  -1.284   1.145  0.00  0.00    +0.000 C 
ATOM     18  C18 UNK     0      -1.619  -2.325  -1.934  0.00  0.00    +0.000 C 
ENDROOT
TORSDOF 0
