REMARK  Name = C:\Users\Maximilian\Desktop\Conformers\converted_pdb\conformers_pdb\Parthenolide_conf_5.pdb
REMARK  2 active torsions:
REMARK  status: ('A' for Active; 'I' for Inactive)
REMARK    1  A    between atoms: C4_4  and  C9_9
REMARK    2  A    between atoms: C16_16  and  C18_18
REMARK                            x       y       z     vdW  Elec       q    Type
REMARK                         _______ _______ _______ _____ _____    ______ ____
ROOT
ATOM      1  O1  UNK     0      -1.338  -2.153   1.651  0.00  0.00    +0.000 OA
ATOM      2  O2  UNK     0       1.458  -1.384   1.851  0.00  0.00    +0.000 OA
ATOM      3  O3  UNK     0       3.604  -2.277   1.916  0.00  0.00    +0.000 OA
ATOM      4  C4  UNK     0      -1.943  -1.611   0.500  0.00  0.00    +0.000 C 
ATOM      5  C5  UNK     0      -0.484  -1.925   0.548  0.00  0.00    +0.000 C 
ATOM      6  C6  UNK     0       0.565  -0.845   0.876  0.00  0.00    +0.000 C 
ATOM      7  C7  UNK     0       1.445  -0.544  -0.385  0.00  0.00    +0.000 C 
ATOM      8  C8  UNK     0      -2.476  -0.190   0.738  0.00  0.00    +0.000 C 
ATOM      9  C9  UNK     0      -2.852  -2.621  -0.201  0.00  0.00    +0.000 C 
ATOM     10  C10 UNK     0       1.760   0.963  -0.553  0.00  0.00    +0.000 C 
ATOM     11  C11 UNK     0      -2.170   0.732  -0.457  0.00  0.00    +0.000 C 
ATOM     12  C12 UNK     0       2.713  -1.291  -0.088  0.00  0.00    +0.000 C 
ATOM     13  C13 UNK     0       0.649   1.762  -1.263  0.00  0.00    +0.000 C 
ATOM     14  C14 UNK     0       2.673  -1.704   1.290  0.00  0.00    +0.000 C 
ATOM     15  C15 UNK     0      -1.533   2.017   0.015  0.00  0.00    +0.000 C 
ATOM     16  C16 UNK     0      -0.290   2.455  -0.291  0.00  0.00    +0.000 C 
ATOM     17  C17 UNK     0       3.696  -1.545  -0.952  0.00  0.00    +0.000 C 
ATOM     18  C18 UNK     0       0.190   3.721   0.373  0.00  0.00    +0.000 C 
ENDROOT
TORSDOF 0
