REMARK  Name = C:\Users\Maximilian\Desktop\Conformers\converted_pdb\conformers_pdb\Parthenolide_conf_19.pdb
REMARK  2 active torsions:
REMARK  status: ('A' for Active; 'I' for Inactive)
REMARK    1  A    between atoms: C4_4  and  C9_9
REMARK    2  A    between atoms: C16_16  and  C18_18
REMARK                            x       y       z     vdW  Elec       q    Type
REMARK                         _______ _______ _______ _____ _____    ______ ____
ROOT
ATOM      1  O1  UNK     0       0.319   2.618  -1.206  0.00  0.00    +0.000 OA
ATOM      2  O2  UNK     0       2.761   0.266  -1.307  0.00  0.00    +0.000 OA
ATOM      3  O3  UNK     0       4.635  -0.681  -0.300  0.00  0.00    +0.000 OA
ATOM      4  C4  UNK     0       0.013   2.522   0.161  0.00  0.00    +0.000 C 
ATOM      5  C5  UNK     0       1.240   1.878  -0.416  0.00  0.00    +0.000 C 
ATOM      6  C6  UNK     0       1.378   0.444  -0.993  0.00  0.00    +0.000 C 
ATOM      7  C7  UNK     0       1.062  -0.689   0.044  0.00  0.00    +0.000 C 
ATOM      8  C8  UNK     0      -1.283   1.753   0.508  0.00  0.00    +0.000 C 
ATOM      9  C9  UNK     0       0.240   3.849   0.892  0.00  0.00    +0.000 C 
ATOM     10  C10 UNK     0       0.491  -1.969  -0.622  0.00  0.00    +0.000 C 
ATOM     11  C11 UNK     0      -1.971   0.975  -0.630  0.00  0.00    +0.000 C 
ATOM     12  C12 UNK     0       2.422  -1.019   0.583  0.00  0.00    +0.000 C 
ATOM     13  C13 UNK     0      -0.884  -1.832  -1.297  0.00  0.00    +0.000 C 
ATOM     14  C14 UNK     0       3.391  -0.487  -0.340  0.00  0.00    +0.000 C 
ATOM     15  C15 UNK     0      -2.525  -0.323  -0.096  0.00  0.00    +0.000 C 
ATOM     16  C16 UNK     0      -2.009  -1.554  -0.319  0.00  0.00    +0.000 C 
ATOM     17  C17 UNK     0       2.685  -1.717   1.687  0.00  0.00    +0.000 C 
ATOM     18  C18 UNK     0      -2.607  -2.717   0.431  0.00  0.00    +0.000 C 
ENDROOT
TORSDOF 0
