REMARK  Name = C:\Users\Maximilian\Desktop\Conformers\converted_pdb\conformers_pdb\Parthenolide_conf_4.pdb
REMARK  2 active torsions:
REMARK  status: ('A' for Active; 'I' for Inactive)
REMARK    1  A    between atoms: C4_4  and  C9_9
REMARK    2  A    between atoms: C16_16  and  C18_18
REMARK                            x       y       z     vdW  Elec       q    Type
REMARK                         _______ _______ _______ _____ _____    ______ ____
ROOT
ATOM      1  O1  UNK     0      -1.286  -1.946   1.240  0.00  0.00    +0.000 OA
ATOM      2  O2  UNK     0       1.796  -2.533  -0.620  0.00  0.00    +0.000 OA
ATOM      3  O3  UNK     0       3.769  -2.002  -1.730  0.00  0.00    +0.000 OA
ATOM      4  C4  UNK     0      -1.870  -1.850  -0.030  0.00  0.00    +0.000 C 
ATOM      5  C5  UNK     0      -0.516  -2.485   0.177  0.00  0.00    +0.000 C 
ATOM      6  C6  UNK     0       0.914  -1.895   0.299  0.00  0.00    +0.000 C 
ATOM      7  C7  UNK     0       1.169  -0.364   0.125  0.00  0.00    +0.000 C 
ATOM      8  C8  UNK     0      -2.060  -0.421  -0.588  0.00  0.00    +0.000 C 
ATOM      9  C9  UNK     0      -3.052  -2.813  -0.176  0.00  0.00    +0.000 C 
ATOM     10  C10 UNK     0       1.104   0.384   1.482  0.00  0.00    +0.000 C 
ATOM     11  C11 UNK     0      -2.015   0.731   0.446  0.00  0.00    +0.000 C 
ATOM     12  C12 UNK     0       2.523  -0.332  -0.524  0.00  0.00    +0.000 C 
ATOM     13  C13 UNK     0       0.687   1.877   1.442  0.00  0.00    +0.000 C 
ATOM     14  C14 UNK     0       2.790  -1.664  -1.014  0.00  0.00    +0.000 C 
ATOM     15  C15 UNK     0      -1.306   1.925  -0.142  0.00  0.00    +0.000 C 
ATOM     16  C16 UNK     0      -0.078   2.373   0.217  0.00  0.00    +0.000 C 
ATOM     17  C17 UNK     0       3.271   0.746  -0.758  0.00  0.00    +0.000 C 
ATOM     18  C18 UNK     0       0.518   3.490  -0.604  0.00  0.00    +0.000 C 
ENDROOT
TORSDOF 0
