REMARK  Name = C:\Users\Maximilian\Desktop\Conformers\converted_pdb\conformers_pdb\Parthenolide_conf_14.pdb
REMARK  2 active torsions:
REMARK  status: ('A' for Active; 'I' for Inactive)
REMARK    1  A    between atoms: C4_4  and  C9_9
REMARK    2  A    between atoms: C16_16  and  C18_18
REMARK                            x       y       z     vdW  Elec       q    Type
REMARK                         _______ _______ _______ _____ _____    ______ ____
ROOT
ATOM      1  O1  UNK     0       2.765   0.339   1.476  0.00  0.00    +0.000 OA
ATOM      2  O2  UNK     0       0.554   2.633   1.733  0.00  0.00    +0.000 OA
ATOM      3  O3  UNK     0      -0.318   4.735   1.260  0.00  0.00    +0.000 OA
ATOM      4  C4  UNK     0       2.491  -0.272   0.236  0.00  0.00    +0.000 C 
ATOM      5  C5  UNK     0       1.976   1.092   0.572  0.00  0.00    +0.000 C 
ATOM      6  C6  UNK     0       0.566   1.330   1.151  0.00  0.00    +0.000 C 
ATOM      7  C7  UNK     0      -0.525   1.360   0.017  0.00  0.00    +0.000 C 
ATOM      8  C8  UNK     0       1.614  -1.528   0.366  0.00  0.00    +0.000 C 
ATOM      9  C9  UNK     0       3.737  -0.348  -0.648  0.00  0.00    +0.000 C 
ATOM     10  C10 UNK     0      -1.831   0.576   0.330  0.00  0.00    +0.000 C 
ATOM     11  C11 UNK     0       0.797  -1.734  -0.920  0.00  0.00    +0.000 C 
ATOM     12  C12 UNK     0      -0.847   2.823  -0.097  0.00  0.00    +0.000 C 
ATOM     13  C13 UNK     0      -1.714  -0.869   0.865  0.00  0.00    +0.000 C 
ATOM     14  C14 UNK     0      -0.208   3.509   0.995  0.00  0.00    +0.000 C 
ATOM     15  C15 UNK     0      -0.526  -2.445  -0.771  0.00  0.00    +0.000 C 
ATOM     16  C16 UNK     0      -1.656  -1.984  -0.174  0.00  0.00    +0.000 C 
ATOM     17  C17 UNK     0      -1.586   3.392  -1.049  0.00  0.00    +0.000 C 
ATOM     18  C18 UNK     0      -2.924  -2.765  -0.435  0.00  0.00    +0.000 C 
ENDROOT
TORSDOF 0
