REMARK  Name = C:\Users\Maximilian\Desktop\Conformers\converted_pdb\conformers_pdb\Parthenolide_conf_10.pdb
REMARK  2 active torsions:
REMARK  status: ('A' for Active; 'I' for Inactive)
REMARK    1  A    between atoms: C4_4  and  C9_9
REMARK    2  A    between atoms: C16_16  and  C18_18
REMARK                            x       y       z     vdW  Elec       q    Type
REMARK                         _______ _______ _______ _____ _____    ______ ____
ROOT
ATOM      1  O1  UNK     0       0.488   2.297   1.564  0.00  0.00    +0.000 OA
ATOM      2  O2  UNK     0       2.519   1.401  -0.144  0.00  0.00    +0.000 OA
ATOM      3  O3  UNK     0       4.753   0.812  -0.383  0.00  0.00    +0.000 OA
ATOM      4  C4  UNK     0      -0.732   1.603   1.441  0.00  0.00    +0.000 C 
ATOM      5  C5  UNK     0       0.595   0.929   1.234  0.00  0.00    +0.000 C 
ATOM      6  C6  UNK     0       1.239   0.768  -0.156  0.00  0.00    +0.000 C 
ATOM      7  C7  UNK     0       1.506  -0.746  -0.495  0.00  0.00    +0.000 C 
ATOM      8  C8  UNK     0      -1.586   2.204   0.304  0.00  0.00    +0.000 C 
ATOM      9  C9  UNK     0      -1.395   1.459   2.815  0.00  0.00    +0.000 C 
ATOM     10  C10 UNK     0       0.860  -1.181  -1.841  0.00  0.00    +0.000 C 
ATOM     11  C11 UNK     0      -2.560   1.186  -0.308  0.00  0.00    +0.000 C 
ATOM     12  C12 UNK     0       3.003  -0.824  -0.564  0.00  0.00    +0.000 C 
ATOM     13  C13 UNK     0      -0.524  -1.840  -1.676  0.00  0.00    +0.000 C 
ATOM     14  C14 UNK     0       3.533   0.500  -0.368  0.00  0.00    +0.000 C 
ATOM     15  C15 UNK     0      -1.832   0.197  -1.183  0.00  0.00    +0.000 C 
ATOM     16  C16 UNK     0      -1.462  -1.043  -0.794  0.00  0.00    +0.000 C 
ATOM     17  C17 UNK     0       3.725  -1.938  -0.693  0.00  0.00    +0.000 C 
ATOM     18  C18 UNK     0      -1.953  -1.656   0.497  0.00  0.00    +0.000 C 
ENDROOT
TORSDOF 0
