REMARK  Name = C:\Users\Maximilian\Desktop\Conformers\converted_pdb\conformers_pdb\Parthenolide_conf_2.pdb
REMARK  2 active torsions:
REMARK  status: ('A' for Active; 'I' for Inactive)
REMARK    1  A    between atoms: C4_4  and  C9_9
REMARK    2  A    between atoms: C16_16  and  C18_18
REMARK                            x       y       z     vdW  Elec       q    Type
REMARK                         _______ _______ _______ _____ _____    ______ ____
ROOT
ATOM      1  O1  UNK     0      -1.114  -2.643   0.532  0.00  0.00    +0.000 OA
ATOM      2  O2  UNK     0       1.557  -1.875   1.127  0.00  0.00    +0.000 OA
ATOM      3  O3  UNK     0       3.769  -1.822   1.857  0.00  0.00    +0.000 OA
ATOM      4  C4  UNK     0      -1.819  -1.601  -0.106  0.00  0.00    +0.000 C 
ATOM      5  C5  UNK     0      -0.373  -1.888  -0.401  0.00  0.00    +0.000 C 
ATOM      6  C6  UNK     0       0.741  -1.074   0.278  0.00  0.00    +0.000 C 
ATOM      7  C7  UNK     0       1.737  -0.445  -0.742  0.00  0.00    +0.000 C 
ATOM      8  C8  UNK     0      -2.325  -0.586   0.949  0.00  0.00    +0.000 C 
ATOM      9  C9  UNK     0      -2.847  -2.156  -1.095  0.00  0.00    +0.000 C 
ATOM     10  C10 UNK     0       1.313   0.881  -1.429  0.00  0.00    +0.000 C 
ATOM     11  C11 UNK     0      -2.638   0.807   0.367  0.00  0.00    +0.000 C 
ATOM     12  C12 UNK     0       3.022  -0.433   0.033  0.00  0.00    +0.000 C 
ATOM     13  C13 UNK     0       0.929   2.083  -0.532  0.00  0.00    +0.000 C 
ATOM     14  C14 UNK     0       2.859  -1.410   1.091  0.00  0.00    +0.000 C 
ATOM     15  C15 UNK     0      -1.460   1.393  -0.367  0.00  0.00    +0.000 C 
ATOM     16  C16 UNK     0      -0.369   1.917   0.240  0.00  0.00    +0.000 C 
ATOM     17  C17 UNK     0       4.160   0.183  -0.289  0.00  0.00    +0.000 C 
ATOM     18  C18 UNK     0      -0.397   2.309   1.701  0.00  0.00    +0.000 C 
ENDROOT
TORSDOF 0
