REMARK  Name = C:\Users\Maximilian\Desktop\Conformers\converted_pdb\conformers_pdb\Pentoxifylline_conf_25.pdb
REMARK  8 active torsions:
REMARK  status: ('A' for Active; 'I' for Inactive)
REMARK    1  A    between atoms: N4_3  and  C8_14
REMARK    2  A    between atoms: N5_4  and  C17_12
REMARK    3  A    between atoms: N6_5  and  C18_13
REMARK    4  A    between atoms: C8_14  and  C9_15
REMARK    5  A    between atoms: C9_15  and  C10_16
REMARK    6  A    between atoms: C10_16  and  C15_17
REMARK    7  A    between atoms: C15_17  and  C19_18
REMARK    8  A    between atoms: C19_18  and  C20_19
REMARK                            x       y       z     vdW  Elec       q    Type
REMARK                         _______ _______ _______ _____ _____    ______ ____
ROOT
ATOM      1  O1  UNK     0      -1.357  -0.350   2.268  0.00  0.00    +0.000 OA
ATOM      2  O2  UNK     0       0.449  -1.159  -1.878  0.00  0.00    +0.000 OA
ATOM      3  N4  UNK     0      -0.385  -0.749   0.221  0.00  0.00    +0.000 N 
ATOM      4  N5  UNK     0      -1.739  -0.528  -1.755  0.00  0.00    +0.000 N 
ATOM      5  N6  UNK     0      -3.867   0.194   0.915  0.00  0.00    +0.000 N 
ATOM      6  N7  UNK     0      -4.049   0.075  -1.340  0.00  0.00    +0.000 NA
ATOM      7  C11 UNK     0      -2.675  -0.139   0.393  0.00  0.00    +0.000 A 
ATOM      8  C12 UNK     0      -1.461  -0.410   1.012  0.00  0.00    +0.000 A 
ATOM      9  C13 UNK     0      -2.789  -0.207  -0.952  0.00  0.00    +0.000 A 
ATOM     10  C14 UNK     0      -0.532  -0.820  -1.157  0.00  0.00    +0.000 A 
ATOM     11  C16 UNK     0      -4.681   0.316  -0.162  0.00  0.00    +0.000 A 
ATOM     12  C17 UNK     0      -1.909  -0.629  -3.211  0.00  0.00    +0.000 C 
ATOM     13  C18 UNK     0      -4.230   0.376   2.316  0.00  0.00    +0.000 C 
ENDROOT
BRANCH   3  14
ATOM     14  C8  UNK     0       0.922  -1.027   0.853  0.00  0.00    +0.000 C 
BRANCH  14  15
ATOM     15  C9  UNK     0       1.644   0.270   1.261  0.00  0.00    +0.000 C 
BRANCH  15  16
ATOM     16  C10 UNK     0       2.050   1.165   0.074  0.00  0.00    +0.000 C 
BRANCH  16  17
ATOM     17  C15 UNK     0       3.196   0.591  -0.776  0.00  0.00    +0.000 C 
BRANCH  17  18
ATOM     18  C19 UNK     0       4.478   0.472   0.008  0.00  0.00    +0.000 C 
ATOM     19  C20 UNK     0       5.076  -0.866   0.326  0.00  0.00    +0.000 C 
ATOM     20  O3  UNK     0       5.046   1.484   0.389  0.00  0.00    +0.000 OA
ENDBRANCH  17  18
ENDBRANCH  16  17
ENDBRANCH  15  16
ENDBRANCH  14  15
ENDBRANCH   3  14
TORSDOF 5
