REMARK  Name = C:\Users\Maximilian\Desktop\Conformers\converted_pdb\conformers_pdb\Pentoxifylline_conf_15.pdb
REMARK  8 active torsions:
REMARK  status: ('A' for Active; 'I' for Inactive)
REMARK    1  A    between atoms: N4_3  and  C8_14
REMARK    2  A    between atoms: N5_4  and  C17_12
REMARK    3  A    between atoms: N6_5  and  C18_13
REMARK    4  A    between atoms: C8_14  and  C9_15
REMARK    5  A    between atoms: C9_15  and  C10_16
REMARK    6  A    between atoms: C10_16  and  C15_17
REMARK    7  A    between atoms: C15_17  and  C19_18
REMARK    8  A    between atoms: C19_18  and  C20_19
REMARK                            x       y       z     vdW  Elec       q    Type
REMARK                         _______ _______ _______ _____ _____    ______ ____
ROOT
ATOM      1  O1  UNK     0      -1.130   2.455   0.125  0.00  0.00    +0.000 OA
ATOM      2  O2  UNK     0      -0.051  -1.616  -1.709  0.00  0.00    +0.000 OA
ATOM      3  N4  UNK     0      -0.520   0.437  -0.796  0.00  0.00    +0.000 N 
ATOM      4  N5  UNK     0      -2.070  -1.398  -0.670  0.00  0.00    +0.000 N 
ATOM      5  N6  UNK     0      -3.674   1.282   0.886  0.00  0.00    +0.000 N 
ATOM      6  N7  UNK     0      -4.173  -0.878   0.415  0.00  0.00    +0.000 NA
ATOM      7  C11 UNK     0      -2.633   0.717   0.251  0.00  0.00    +0.000 A 
ATOM      8  C12 UNK     0      -1.410   1.251  -0.130  0.00  0.00    +0.000 A 
ATOM      9  C13 UNK     0      -2.936  -0.571  -0.026  0.00  0.00    +0.000 A 
ATOM     10  C14 UNK     0      -0.858  -0.880  -1.075  0.00  0.00    +0.000 A 
ATOM     11  C16 UNK     0      -4.594   0.289   0.970  0.00  0.00    +0.000 A 
ATOM     12  C17 UNK     0      -2.446  -2.782  -0.987  0.00  0.00    +0.000 C 
ATOM     13  C18 UNK     0      -3.812   2.651   1.371  0.00  0.00    +0.000 C 
ENDROOT
BRANCH   3  14
ATOM     14  C8  UNK     0       0.796   0.976  -1.200  0.00  0.00    +0.000 C 
BRANCH  14  15
ATOM     15  C9  UNK     0       1.771   1.048  -0.011  0.00  0.00    +0.000 C 
BRANCH  15  16
ATOM     16  C10 UNK     0       2.154  -0.325   0.574  0.00  0.00    +0.000 C 
BRANCH  16  17
ATOM     17  C15 UNK     0       3.067  -1.162  -0.338  0.00  0.00    +0.000 C 
BRANCH  17  18
ATOM     18  C19 UNK     0       4.411  -0.514  -0.544  0.00  0.00    +0.000 C 
ATOM     19  C20 UNK     0       5.446  -0.519   0.542  0.00  0.00    +0.000 C 
ATOM     20  O3  UNK     0       4.657   0.047  -1.601  0.00  0.00    +0.000 OA
ENDBRANCH  17  18
ENDBRANCH  16  17
ENDBRANCH  15  16
ENDBRANCH  14  15
ENDBRANCH   3  14
TORSDOF 5
