REMARK  Name = C:\Users\Maximilian\Desktop\Conformers\converted_pdb\conformers_pdb\Pentoxifylline_conf_27.pdb
REMARK  8 active torsions:
REMARK  status: ('A' for Active; 'I' for Inactive)
REMARK    1  A    between atoms: N4_3  and  C8_14
REMARK    2  A    between atoms: N5_4  and  C17_12
REMARK    3  A    between atoms: N6_5  and  C18_13
REMARK    4  A    between atoms: C8_14  and  C9_15
REMARK    5  A    between atoms: C9_15  and  C10_16
REMARK    6  A    between atoms: C10_16  and  C15_17
REMARK    7  A    between atoms: C15_17  and  C19_18
REMARK    8  A    between atoms: C19_18  and  C20_19
REMARK                            x       y       z     vdW  Elec       q    Type
REMARK                         _______ _______ _______ _____ _____    ______ ____
ROOT
ATOM      1  O1  UNK     0      -1.532  -1.449  -1.714  0.00  0.00    +0.000 OA
ATOM      2  O2  UNK     0       0.282   2.105   0.559  0.00  0.00    +0.000 OA
ATOM      3  N4  UNK     0      -0.567   0.329  -0.619  0.00  0.00    +0.000 N 
ATOM      4  N5  UNK     0      -1.966   1.747   0.728  0.00  0.00    +0.000 N 
ATOM      5  N6  UNK     0      -4.113  -0.623  -0.671  0.00  0.00    +0.000 N 
ATOM      6  N7  UNK     0      -4.321   1.175   0.693  0.00  0.00    +0.000 NA
ATOM      7  C11 UNK     0      -2.902  -0.075  -0.476  0.00  0.00    +0.000 A 
ATOM      8  C12 UNK     0      -1.655  -0.439  -0.968  0.00  0.00    +0.000 A 
ATOM      9  C13 UNK     0      -3.032   0.995   0.340  0.00  0.00    +0.000 A 
ATOM     10  C14 UNK     0      -0.724   1.413   0.232  0.00  0.00    +0.000 A 
ATOM     11  C16 UNK     0      -4.954   0.159   0.050  0.00  0.00    +0.000 A 
ATOM     12  C17 UNK     0      -2.146   2.919   1.596  0.00  0.00    +0.000 C 
ATOM     13  C18 UNK     0      -4.468  -1.786  -1.476  0.00  0.00    +0.000 C 
ENDROOT
BRANCH   3  14
ATOM     14  C8  UNK     0       0.777  -0.035  -1.110  0.00  0.00    +0.000 C 
BRANCH  14  15
ATOM     15  C9  UNK     0       1.467  -0.976  -0.112  0.00  0.00    +0.000 C 
BRANCH  15  16
ATOM     16  C10 UNK     0       2.803  -1.532  -0.635  0.00  0.00    +0.000 C 
BRANCH  16  17
ATOM     17  C15 UNK     0       3.896  -0.474  -0.862  0.00  0.00    +0.000 C 
BRANCH  17  18
ATOM     18  C19 UNK     0       4.288   0.229   0.410  0.00  0.00    +0.000 C 
ATOM     19  C20 UNK     0       5.478  -0.231   1.196  0.00  0.00    +0.000 C 
ATOM     20  O3  UNK     0       3.646   1.196   0.793  0.00  0.00    +0.000 OA
ENDBRANCH  17  18
ENDBRANCH  16  17
ENDBRANCH  15  16
ENDBRANCH  14  15
ENDBRANCH   3  14
TORSDOF 5
