REMARK  Name = C:\Users\Maximilian\Desktop\Conformers\converted_pdb\conformers_pdb\Pentoxifylline_conf_9.pdb
REMARK  8 active torsions:
REMARK  status: ('A' for Active; 'I' for Inactive)
REMARK    1  A    between atoms: N4_3  and  C8_14
REMARK    2  A    between atoms: N5_4  and  C17_12
REMARK    3  A    between atoms: N6_5  and  C18_13
REMARK    4  A    between atoms: C8_14  and  C9_15
REMARK    5  A    between atoms: C9_15  and  C10_16
REMARK    6  A    between atoms: C10_16  and  C15_17
REMARK    7  A    between atoms: C15_17  and  C19_18
REMARK    8  A    between atoms: C19_18  and  C20_19
REMARK                            x       y       z     vdW  Elec       q    Type
REMARK                         _______ _______ _______ _____ _____    ______ ____
ROOT
ATOM      1  O1  UNK     0      -1.091   0.969   1.961  0.00  0.00    +0.000 OA
ATOM      2  O2  UNK     0      -0.444   0.939  -2.586  0.00  0.00    +0.000 OA
ATOM      3  N4  UNK     0      -0.707   0.988  -0.307  0.00  0.00    +0.000 N 
ATOM      4  N5  UNK     0      -2.225  -0.208  -1.739  0.00  0.00    +0.000 N 
ATOM      5  N6  UNK     0      -3.456  -0.650   1.496  0.00  0.00    +0.000 N 
ATOM      6  N7  UNK     0      -4.068  -1.284  -0.591  0.00  0.00    +0.000 NA
ATOM      7  C11 UNK     0      -2.568  -0.166   0.611  0.00  0.00    +0.000 A 
ATOM      8  C12 UNK     0      -1.435   0.613   0.801  0.00  0.00    +0.000 A 
ATOM      9  C13 UNK     0      -2.937  -0.549  -0.632  0.00  0.00    +0.000 A 
ATOM     10  C14 UNK     0      -1.108   0.583  -1.572  0.00  0.00    +0.000 A 
ATOM     11  C16 UNK     0      -4.354  -1.323   0.737  0.00  0.00    +0.000 A 
ATOM     12  C17 UNK     0      -2.673  -0.614  -3.078  0.00  0.00    +0.000 C 
ATOM     13  C18 UNK     0      -3.475  -0.491   2.947  0.00  0.00    +0.000 C 
ENDROOT
BRANCH   3  14
ATOM     14  C8  UNK     0       0.511   1.807  -0.133  0.00  0.00    +0.000 C 
BRANCH  14  15
ATOM     15  C9  UNK     0       1.709   0.952   0.309  0.00  0.00    +0.000 C 
BRANCH  15  16
ATOM     16  C10 UNK     0       2.139  -0.053  -0.771  0.00  0.00    +0.000 C 
BRANCH  16  17
ATOM     17  C15 UNK     0       3.357  -0.880  -0.338  0.00  0.00    +0.000 C 
BRANCH  17  18
ATOM     18  C19 UNK     0       4.603  -0.041  -0.235  0.00  0.00    +0.000 C 
ATOM     19  C20 UNK     0       5.301   0.123   1.082  0.00  0.00    +0.000 C 
ATOM     20  O3  UNK     0       5.063   0.489  -1.235  0.00  0.00    +0.000 OA
ENDBRANCH  17  18
ENDBRANCH  16  17
ENDBRANCH  15  16
ENDBRANCH  14  15
ENDBRANCH   3  14
TORSDOF 5
