REMARK  Name = C:\Users\Maximilian\Desktop\Conformers\converted_pdb\conformers_pdb\Pentoxifylline_conf_19.pdb
REMARK  8 active torsions:
REMARK  status: ('A' for Active; 'I' for Inactive)
REMARK    1  A    between atoms: N4_3  and  C8_14
REMARK    2  A    between atoms: N5_4  and  C17_12
REMARK    3  A    between atoms: N6_5  and  C18_13
REMARK    4  A    between atoms: C8_14  and  C9_15
REMARK    5  A    between atoms: C9_15  and  C10_16
REMARK    6  A    between atoms: C10_16  and  C15_17
REMARK    7  A    between atoms: C15_17  and  C19_18
REMARK    8  A    between atoms: C19_18  and  C20_19
REMARK                            x       y       z     vdW  Elec       q    Type
REMARK                         _______ _______ _______ _____ _____    ______ ____
ROOT
ATOM      1  O1  UNK     0      -1.318  -2.130  -0.340  0.00  0.00    +0.000 OA
ATOM      2  O2  UNK     0      -0.159   2.128  -1.608  0.00  0.00    +0.000 OA
ATOM      3  N4  UNK     0      -0.706  -0.027  -1.044  0.00  0.00    +0.000 N 
ATOM      4  N5  UNK     0      -2.122   1.833  -0.481  0.00  0.00    +0.000 N 
ATOM      5  N6  UNK     0      -3.678  -0.972   0.894  0.00  0.00    +0.000 N 
ATOM      6  N7  UNK     0      -4.088   1.254   0.811  0.00  0.00    +0.000 NA
ATOM      7  C11 UNK     0      -2.700  -0.370   0.198  0.00  0.00    +0.000 A 
ATOM      8  C12 UNK     0      -1.561  -0.893  -0.399  0.00  0.00    +0.000 A 
ATOM      9  C13 UNK     0      -2.951   0.958   0.149  0.00  0.00    +0.000 A 
ATOM     10  C14 UNK     0      -0.975   1.333  -1.061  0.00  0.00    +0.000 A 
ATOM     11  C16 UNK     0      -4.506   0.039   1.254  0.00  0.00    +0.000 A 
ATOM     12  C17 UNK     0      -2.401   3.275  -0.469  0.00  0.00    +0.000 C 
ATOM     13  C18 UNK     0      -3.825  -2.387   1.221  0.00  0.00    +0.000 C 
ENDROOT
BRANCH   3  14
ATOM     14  C8  UNK     0       0.532  -0.543  -1.661  0.00  0.00    +0.000 C 
BRANCH  14  15
ATOM     15  C9  UNK     0       1.675  -0.537  -0.641  0.00  0.00    +0.000 C 
BRANCH  15  16
ATOM     16  C10 UNK     0       2.977  -1.059  -1.264  0.00  0.00    +0.000 C 
BRANCH  16  17
ATOM     17  C15 UNK     0       4.123  -1.112  -0.244  0.00  0.00    +0.000 C 
BRANCH  17  18
ATOM     18  C19 UNK     0       4.550   0.267   0.191  0.00  0.00    +0.000 C 
ATOM     19  C20 UNK     0       4.334   0.743   1.596  0.00  0.00    +0.000 C 
ATOM     20  O3  UNK     0       5.088   1.012  -0.614  0.00  0.00    +0.000 OA
ENDBRANCH  17  18
ENDBRANCH  16  17
ENDBRANCH  15  16
ENDBRANCH  14  15
ENDBRANCH   3  14
TORSDOF 5
