REMARK  Name = C:\Users\Maximilian\Desktop\Conformers\converted_pdb\conformers_pdb\Pentoxifylline_conf_21.pdb
REMARK  8 active torsions:
REMARK  status: ('A' for Active; 'I' for Inactive)
REMARK    1  A    between atoms: N4_3  and  C8_14
REMARK    2  A    between atoms: N5_4  and  C17_12
REMARK    3  A    between atoms: N6_5  and  C18_13
REMARK    4  A    between atoms: C8_14  and  C9_15
REMARK    5  A    between atoms: C9_15  and  C10_16
REMARK    6  A    between atoms: C10_16  and  C15_17
REMARK    7  A    between atoms: C15_17  and  C19_18
REMARK    8  A    between atoms: C19_18  and  C20_19
REMARK                            x       y       z     vdW  Elec       q    Type
REMARK                         _______ _______ _______ _____ _____    ______ ____
ROOT
ATOM      1  O1  UNK     0      -1.892   2.213   0.413  0.00  0.00    +0.000 OA
ATOM      2  O2  UNK     0       0.335  -1.669   1.449  0.00  0.00    +0.000 OA
ATOM      3  N4  UNK     0      -0.726   0.309   0.965  0.00  0.00    +0.000 N 
ATOM      4  N5  UNK     0      -1.295  -1.748  -0.145  0.00  0.00    +0.000 N 
ATOM      5  N6  UNK     0      -3.467   0.647  -1.456  0.00  0.00    +0.000 N 
ATOM      6  N7  UNK     0      -3.113  -1.573  -1.737  0.00  0.00    +0.000 NA
ATOM      7  C11 UNK     0      -2.463   0.257  -0.654  0.00  0.00    +0.000 A 
ATOM      8  C12 UNK     0      -1.696   0.978   0.251  0.00  0.00    +0.000 A 
ATOM      9  C13 UNK     0      -2.255  -1.068  -0.827  0.00  0.00    +0.000 A 
ATOM     10  C14 UNK     0      -0.539  -1.053   0.775  0.00  0.00    +0.000 A 
ATOM     11  C16 UNK     0      -3.842  -0.485  -2.100  0.00  0.00    +0.000 A 
ATOM     12  C17 UNK     0      -1.119  -3.194  -0.333  0.00  0.00    +0.000 C 
ATOM     13  C18 UNK     0      -4.047   1.978  -1.608  0.00  0.00    +0.000 C 
ENDROOT
BRANCH   3  14
ATOM     14  C8  UNK     0       0.117   1.056   1.923  0.00  0.00    +0.000 C 
BRANCH  14  15
ATOM     15  C9  UNK     0       1.221   1.856   1.206  0.00  0.00    +0.000 C 
BRANCH  15  16
ATOM     16  C10 UNK     0       2.236   0.985   0.446  0.00  0.00    +0.000 C 
BRANCH  16  17
ATOM     17  C15 UNK     0       3.204   0.249   1.390  0.00  0.00    +0.000 C 
BRANCH  17  18
ATOM     18  C19 UNK     0       4.236  -0.602   0.683  0.00  0.00    +0.000 C 
ATOM     19  C20 UNK     0       4.246  -0.808  -0.807  0.00  0.00    +0.000 C 
ATOM     20  O3  UNK     0       5.092  -1.154   1.357  0.00  0.00    +0.000 OA
ENDBRANCH  17  18
ENDBRANCH  16  17
ENDBRANCH  15  16
ENDBRANCH  14  15
ENDBRANCH   3  14
TORSDOF 5
