REMARK  Name = C:\Users\Maximilian\Desktop\Conformers\converted_pdb\conformers_pdb\Pentoxifylline_conf_24.pdb
REMARK  8 active torsions:
REMARK  status: ('A' for Active; 'I' for Inactive)
REMARK    1  A    between atoms: N4_3  and  C8_14
REMARK    2  A    between atoms: N5_4  and  C17_12
REMARK    3  A    between atoms: N6_5  and  C18_13
REMARK    4  A    between atoms: C8_14  and  C9_15
REMARK    5  A    between atoms: C9_15  and  C10_16
REMARK    6  A    between atoms: C10_16  and  C15_17
REMARK    7  A    between atoms: C15_17  and  C19_18
REMARK    8  A    between atoms: C19_18  and  C20_19
REMARK                            x       y       z     vdW  Elec       q    Type
REMARK                         _______ _______ _______ _____ _____    ______ ____
ROOT
ATOM      1  O1  UNK     0      -1.032  -1.551   0.340  0.00  0.00    +0.000 OA
ATOM      2  O2  UNK     0      -0.356   2.631  -1.434  0.00  0.00    +0.000 OA
ATOM      3  N4  UNK     0      -0.630   0.522  -0.573  0.00  0.00    +0.000 N 
ATOM      4  N5  UNK     0      -2.495   1.989  -0.964  0.00  0.00    +0.000 N 
ATOM      5  N6  UNK     0      -3.873  -0.951   0.317  0.00  0.00    +0.000 N 
ATOM      6  N7  UNK     0      -4.659   1.041  -0.422  0.00  0.00    +0.000 NA
ATOM      7  C11 UNK     0      -2.839  -0.187  -0.074  0.00  0.00    +0.000 A 
ATOM      8  C12 UNK     0      -1.476  -0.449  -0.086  0.00  0.00    +0.000 A 
ATOM      9  C13 UNK     0      -3.314   1.000  -0.512  0.00  0.00    +0.000 A 
ATOM     10  C14 UNK     0      -1.140   1.738  -1.002  0.00  0.00    +0.000 A 
ATOM     11  C16 UNK     0      -4.965  -0.178   0.093  0.00  0.00    +0.000 A 
ATOM     12  C17 UNK     0      -3.046   3.259  -1.455  0.00  0.00    +0.000 C 
ATOM     13  C18 UNK     0      -3.852  -2.307   0.856  0.00  0.00    +0.000 C 
ENDROOT
BRANCH   3  14
ATOM     14  C8  UNK     0       0.827   0.285  -0.587  0.00  0.00    +0.000 C 
BRANCH  14  15
ATOM     15  C9  UNK     0       1.449   0.730   0.744  0.00  0.00    +0.000 C 
BRANCH  15  16
ATOM     16  C10 UNK     0       2.982   0.633   0.747  0.00  0.00    +0.000 C 
BRANCH  16  17
ATOM     17  C15 UNK     0       3.482  -0.817   0.813  0.00  0.00    +0.000 C 
BRANCH  17  18
ATOM     18  C19 UNK     0       4.983  -0.857   0.927  0.00  0.00    +0.000 C 
ATOM     19  C20 UNK     0       5.840  -1.372  -0.191  0.00  0.00    +0.000 C 
ATOM     20  O3  UNK     0       5.518  -0.471   1.956  0.00  0.00    +0.000 OA
ENDBRANCH  17  18
ENDBRANCH  16  17
ENDBRANCH  15  16
ENDBRANCH  14  15
ENDBRANCH   3  14
TORSDOF 5
