REMARK  Name = C:\Users\Maximilian\Desktop\Conformers\converted_pdb\conformers_pdb\Pentoxifylline_conf_38.pdb
REMARK  8 active torsions:
REMARK  status: ('A' for Active; 'I' for Inactive)
REMARK    1  A    between atoms: N4_3  and  C8_14
REMARK    2  A    between atoms: N5_4  and  C17_12
REMARK    3  A    between atoms: N6_5  and  C18_13
REMARK    4  A    between atoms: C8_14  and  C9_15
REMARK    5  A    between atoms: C9_15  and  C10_16
REMARK    6  A    between atoms: C10_16  and  C15_17
REMARK    7  A    between atoms: C15_17  and  C19_18
REMARK    8  A    between atoms: C19_18  and  C20_19
REMARK                            x       y       z     vdW  Elec       q    Type
REMARK                         _______ _______ _______ _____ _____    ______ ____
ROOT
ATOM      1  O1  UNK     0      -0.704   0.430   1.891  0.00  0.00    +0.000 OA
ATOM      2  O2  UNK     0      -0.776  -2.648  -1.517  0.00  0.00    +0.000 OA
ATOM      3  N4  UNK     0      -0.678  -1.136   0.204  0.00  0.00    +0.000 N 
ATOM      4  N5  UNK     0      -2.444  -1.094  -1.428  0.00  0.00    +0.000 N 
ATOM      5  N6  UNK     0      -3.174   1.492   0.799  0.00  0.00    +0.000 N 
ATOM      6  N7  UNK     0      -4.126   0.612  -1.059  0.00  0.00    +0.000 NA
ATOM      7  C11 UNK     0      -2.418   0.473   0.357  0.00  0.00    +0.000 A 
ATOM      8  C12 UNK     0      -1.240  -0.062   0.860  0.00  0.00    +0.000 A 
ATOM      9  C13 UNK     0      -2.989  -0.046  -0.752  0.00  0.00    +0.000 A 
ATOM     10  C14 UNK     0      -1.286  -1.652  -0.931  0.00  0.00    +0.000 A 
ATOM     11  C16 UNK     0      -4.204   1.551  -0.081  0.00  0.00    +0.000 A 
ATOM     12  C17 UNK     0      -3.111  -1.656  -2.610  0.00  0.00    +0.000 C 
ATOM     13  C18 UNK     0      -2.960   2.349   1.961  0.00  0.00    +0.000 C 
ENDROOT
BRANCH   3  14
ATOM     14  C8  UNK     0       0.583  -1.730   0.695  0.00  0.00    +0.000 C 
BRANCH  14  15
ATOM     15  C9  UNK     0       1.791  -1.246  -0.120  0.00  0.00    +0.000 C 
BRANCH  15  16
ATOM     16  C10 UNK     0       2.042   0.261   0.050  0.00  0.00    +0.000 C 
BRANCH  16  17
ATOM     17  C15 UNK     0       3.279   0.734  -0.728  0.00  0.00    +0.000 C 
BRANCH  17  18
ATOM     18  C19 UNK     0       4.556   0.191  -0.142  0.00  0.00    +0.000 C 
ATOM     19  C20 UNK     0       5.111   0.738   1.139  0.00  0.00    +0.000 C 
ATOM     20  O3  UNK     0       5.137  -0.725  -0.703  0.00  0.00    +0.000 OA
ENDBRANCH  17  18
ENDBRANCH  16  17
ENDBRANCH  15  16
ENDBRANCH  14  15
ENDBRANCH   3  14
TORSDOF 5
