REMARK  Name = C:\Users\Maximilian\Desktop\Conformers\converted_pdb\conformers_pdb\Pentoxifylline_conf_5.pdb
REMARK  8 active torsions:
REMARK  status: ('A' for Active; 'I' for Inactive)
REMARK    1  A    between atoms: N4_3  and  C8_14
REMARK    2  A    between atoms: N5_4  and  C17_12
REMARK    3  A    between atoms: N6_5  and  C18_13
REMARK    4  A    between atoms: C8_14  and  C9_15
REMARK    5  A    between atoms: C9_15  and  C10_16
REMARK    6  A    between atoms: C10_16  and  C15_17
REMARK    7  A    between atoms: C15_17  and  C19_18
REMARK    8  A    between atoms: C19_18  and  C20_19
REMARK                            x       y       z     vdW  Elec       q    Type
REMARK                         _______ _______ _______ _____ _____    ______ ____
ROOT
ATOM      1  O1  UNK     0      -0.861   1.724   1.019  0.00  0.00    +0.000 OA
ATOM      2  O2  UNK     0      -0.715  -2.840   0.552  0.00  0.00    +0.000 OA
ATOM      3  N4  UNK     0      -0.757  -0.568   0.861  0.00  0.00    +0.000 N 
ATOM      4  N5  UNK     0      -2.483  -1.717  -0.356  0.00  0.00    +0.000 N 
ATOM      5  N6  UNK     0      -3.310   1.668  -0.539  0.00  0.00    +0.000 N 
ATOM      6  N7  UNK     0      -4.182  -0.276  -1.309  0.00  0.00    +0.000 NA
ATOM      7  C11 UNK     0      -2.535   0.648  -0.136  0.00  0.00    +0.000 A 
ATOM      8  C12 UNK     0      -1.360   0.643   0.604  0.00  0.00    +0.000 A 
ATOM      9  C13 UNK     0      -3.061  -0.510  -0.596  0.00  0.00    +0.000 A 
ATOM     10  C14 UNK     0      -1.304  -1.739   0.359  0.00  0.00    +0.000 A 
ATOM     11  C16 UNK     0      -4.301   1.076  -1.250  0.00  0.00    +0.000 A 
ATOM     12  C17 UNK     0      -3.055  -2.949  -0.915  0.00  0.00    +0.000 C 
ATOM     13  C18 UNK     0      -3.134   3.097  -0.300  0.00  0.00    +0.000 C 
ENDROOT
BRANCH   3  14
ATOM     14  C8  UNK     0       0.512  -0.609   1.614  0.00  0.00    +0.000 C 
BRANCH  14  15
ATOM     15  C9  UNK     0       1.702  -0.478   0.658  0.00  0.00    +0.000 C 
BRANCH  15  16
ATOM     16  C10 UNK     0       3.033  -0.506   1.423  0.00  0.00    +0.000 C 
BRANCH  16  17
ATOM     17  C15 UNK     0       4.242  -0.438   0.480  0.00  0.00    +0.000 C 
BRANCH  17  18
ATOM     18  C19 UNK     0       4.336   0.891  -0.223  0.00  0.00    +0.000 C 
ATOM     19  C20 UNK     0       4.210   0.971  -1.714  0.00  0.00    +0.000 C 
ATOM     20  O3  UNK     0       4.537   1.907   0.425  0.00  0.00    +0.000 OA
ENDBRANCH  17  18
ENDBRANCH  16  17
ENDBRANCH  15  16
ENDBRANCH  14  15
ENDBRANCH   3  14
TORSDOF 5
