REMARK  Name = C:\Users\Maximilian\Desktop\Conformers\converted_pdb\conformers_pdb\Pentoxifylline_conf_32.pdb
REMARK  8 active torsions:
REMARK  status: ('A' for Active; 'I' for Inactive)
REMARK    1  A    between atoms: N4_3  and  C8_14
REMARK    2  A    between atoms: N5_4  and  C17_12
REMARK    3  A    between atoms: N6_5  and  C18_13
REMARK    4  A    between atoms: C8_14  and  C9_15
REMARK    5  A    between atoms: C9_15  and  C10_16
REMARK    6  A    between atoms: C10_16  and  C15_17
REMARK    7  A    between atoms: C15_17  and  C19_18
REMARK    8  A    between atoms: C19_18  and  C20_19
REMARK                            x       y       z     vdW  Elec       q    Type
REMARK                         _______ _______ _______ _____ _____    ______ ____
ROOT
ATOM      1  O1  UNK     0      -1.517   0.242  -2.092  0.00  0.00    +0.000 OA
ATOM      2  O2  UNK     0      -0.063  -1.714   1.799  0.00  0.00    +0.000 OA
ATOM      3  N4  UNK     0      -0.754  -0.797  -0.187  0.00  0.00    +0.000 N 
ATOM      4  N5  UNK     0      -2.117  -0.719   1.792  0.00  0.00    +0.000 N 
ATOM      5  N6  UNK     0      -3.905   1.032  -0.641  0.00  0.00    +0.000 N 
ATOM      6  N7  UNK     0      -4.201   0.492   1.539  0.00  0.00    +0.000 NA
ATOM      7  C11 UNK     0      -2.850   0.317  -0.217  0.00  0.00    +0.000 A 
ATOM      8  C12 UNK     0      -1.695  -0.072  -0.883  0.00  0.00    +0.000 A 
ATOM      9  C13 UNK     0      -3.033  -0.004   1.083  0.00  0.00    +0.000 A 
ATOM     10  C14 UNK     0      -0.956  -1.096   1.152  0.00  0.00    +0.000 A 
ATOM     11  C16 UNK     0      -4.708   1.122   0.448  0.00  0.00    +0.000 A 
ATOM     12  C17 UNK     0      -2.328  -1.006   3.217  0.00  0.00    +0.000 C 
ATOM     13  C18 UNK     0      -4.145   1.609  -1.960  0.00  0.00    +0.000 C 
ENDROOT
BRANCH   3  14
ATOM     14  C8  UNK     0       0.501  -1.200  -0.852  0.00  0.00    +0.000 C 
BRANCH  14  15
ATOM     15  C9  UNK     0       1.563  -0.108  -0.687  0.00  0.00    +0.000 C 
BRANCH  15  16
ATOM     16  C10 UNK     0       2.882  -0.513  -1.361  0.00  0.00    +0.000 C 
BRANCH  16  17
ATOM     17  C15 UNK     0       3.946   0.589  -1.261  0.00  0.00    +0.000 C 
BRANCH  17  18
ATOM     18  C19 UNK     0       4.403   0.804   0.158  0.00  0.00    +0.000 C 
ATOM     19  C20 UNK     0       5.314  -0.177   0.833  0.00  0.00    +0.000 C 
ATOM     20  O3  UNK     0       4.006   1.778   0.780  0.00  0.00    +0.000 OA
ENDBRANCH  17  18
ENDBRANCH  16  17
ENDBRANCH  15  16
ENDBRANCH  14  15
ENDBRANCH   3  14
TORSDOF 5
