REMARK  Name = C:\Users\Maximilian\Desktop\Conformers\converted_pdb\conformers_pdb\Pentoxifylline_conf_3.pdb
REMARK  8 active torsions:
REMARK  status: ('A' for Active; 'I' for Inactive)
REMARK    1  A    between atoms: N4_3  and  C8_14
REMARK    2  A    between atoms: N5_4  and  C17_12
REMARK    3  A    between atoms: N6_5  and  C18_13
REMARK    4  A    between atoms: C8_14  and  C9_15
REMARK    5  A    between atoms: C9_15  and  C10_16
REMARK    6  A    between atoms: C10_16  and  C15_17
REMARK    7  A    between atoms: C15_17  and  C19_18
REMARK    8  A    between atoms: C19_18  and  C20_19
REMARK                            x       y       z     vdW  Elec       q    Type
REMARK                         _______ _______ _______ _____ _____    ______ ____
ROOT
ATOM      1  O1  UNK     0      -1.348  -1.458  -1.300  0.00  0.00    +0.000 OA
ATOM      2  O2  UNK     0      -0.650   2.756   0.385  0.00  0.00    +0.000 OA
ATOM      3  N4  UNK     0      -0.949   0.664  -0.506  0.00  0.00    +0.000 N 
ATOM      4  N5  UNK     0      -2.616   1.707   0.878  0.00  0.00    +0.000 N 
ATOM      5  N6  UNK     0      -3.948  -1.395  -0.008  0.00  0.00    +0.000 N 
ATOM      6  N7  UNK     0      -4.628   0.395   1.203  0.00  0.00    +0.000 NA
ATOM      7  C11 UNK     0      -2.982  -0.461  -0.023  0.00  0.00    +0.000 A 
ATOM      8  C12 UNK     0      -1.738  -0.457  -0.639  0.00  0.00    +0.000 A 
ATOM      9  C13 UNK     0      -3.393   0.603   0.702  0.00  0.00    +0.000 A 
ATOM     10  C14 UNK     0      -1.386   1.737   0.256  0.00  0.00    +0.000 A 
ATOM     11  C16 UNK     0      -4.934  -0.846   0.742  0.00  0.00    +0.000 A 
ATOM     12  C17 UNK     0      -3.103   2.856   1.652  0.00  0.00    +0.000 C 
ATOM     13  C18 UNK     0      -3.958  -2.705  -0.651  0.00  0.00    +0.000 C 
ENDROOT
BRANCH   3  14
ATOM     14  C8  UNK     0       0.387   0.699  -1.133  0.00  0.00    +0.000 C 
BRANCH  14  15
ATOM     15  C9  UNK     0       1.441   0.145  -0.168  0.00  0.00    +0.000 C 
BRANCH  15  16
ATOM     16  C10 UNK     0       2.838   0.171  -0.800  0.00  0.00    +0.000 C 
BRANCH  16  17
ATOM     17  C15 UNK     0       3.891  -0.385   0.170  0.00  0.00    +0.000 C 
BRANCH  17  18
ATOM     18  C19 UNK     0       5.287  -0.382  -0.406  0.00  0.00    +0.000 C 
ATOM     19  C20 UNK     0       6.435  -0.892   0.410  0.00  0.00    +0.000 C 
ATOM     20  O3  UNK     0       5.500   0.034  -1.536  0.00  0.00    +0.000 OA
ENDBRANCH  17  18
ENDBRANCH  16  17
ENDBRANCH  15  16
ENDBRANCH  14  15
ENDBRANCH   3  14
TORSDOF 5
