REMARK  Name = C:\Users\Maximilian\Desktop\Conformers\converted_pdb\conformers_pdb\Pentoxifylline_conf_35.pdb
REMARK  8 active torsions:
REMARK  status: ('A' for Active; 'I' for Inactive)
REMARK    1  A    between atoms: N4_3  and  C8_14
REMARK    2  A    between atoms: N5_4  and  C17_12
REMARK    3  A    between atoms: N6_5  and  C18_13
REMARK    4  A    between atoms: C8_14  and  C9_15
REMARK    5  A    between atoms: C9_15  and  C10_16
REMARK    6  A    between atoms: C10_16  and  C15_17
REMARK    7  A    between atoms: C15_17  and  C19_18
REMARK    8  A    between atoms: C19_18  and  C20_19
REMARK                            x       y       z     vdW  Elec       q    Type
REMARK                         _______ _______ _______ _____ _____    ______ ____
ROOT
ATOM      1  O1  UNK     0      -1.035  -0.754  -1.504  0.00  0.00    +0.000 OA
ATOM      2  O2  UNK     0      -0.325   0.415   2.880  0.00  0.00    +0.000 OA
ATOM      3  N4  UNK     0      -0.616  -0.200   0.689  0.00  0.00    +0.000 N 
ATOM      4  N5  UNK     0      -2.472   0.367   2.108  0.00  0.00    +0.000 N 
ATOM      5  N6  UNK     0      -3.875  -0.438  -0.985  0.00  0.00    +0.000 N 
ATOM      6  N7  UNK     0      -4.646   0.189   1.051  0.00  0.00    +0.000 NA
ATOM      7  C11 UNK     0      -2.834  -0.267  -0.153  0.00  0.00    +0.000 A 
ATOM      8  C12 UNK     0      -1.471  -0.421  -0.368  0.00  0.00    +0.000 A 
ATOM      9  C13 UNK     0      -3.300   0.109   1.059  0.00  0.00    +0.000 A 
ATOM     10  C14 UNK     0      -1.117   0.199   1.919  0.00  0.00    +0.000 A 
ATOM     11  C16 UNK     0      -4.961  -0.155  -0.225  0.00  0.00    +0.000 A 
ATOM     12  C17 UNK     0      -3.014   0.750   3.419  0.00  0.00    +0.000 C 
ATOM     13  C18 UNK     0      -3.864  -0.842  -2.387  0.00  0.00    +0.000 C 
ENDROOT
BRANCH   3  14
ATOM     14  C8  UNK     0       0.841  -0.340   0.494  0.00  0.00    +0.000 C 
BRANCH  14  15
ATOM     15  C9  UNK     0       1.442   0.992   0.024  0.00  0.00    +0.000 C 
BRANCH  15  16
ATOM     16  C10 UNK     0       2.975   0.953  -0.071  0.00  0.00    +0.000 C 
BRANCH  16  17
ATOM     17  C15 UNK     0       3.471   0.120  -1.261  0.00  0.00    +0.000 C 
BRANCH  17  18
ATOM     18  C19 UNK     0       4.969   0.197  -1.377  0.00  0.00    +0.000 C 
ATOM     19  C20 UNK     0       5.813  -1.021  -1.148  0.00  0.00    +0.000 C 
ATOM     20  O3  UNK     0       5.501   1.254  -1.681  0.00  0.00    +0.000 OA
ENDBRANCH  17  18
ENDBRANCH  16  17
ENDBRANCH  15  16
ENDBRANCH  14  15
ENDBRANCH   3  14
TORSDOF 5
