REMARK  Name = C:\Users\Maximilian\Desktop\Conformers\converted_pdb\conformers_pdb\Pentoxifylline_conf_28.pdb
REMARK  8 active torsions:
REMARK  status: ('A' for Active; 'I' for Inactive)
REMARK    1  A    between atoms: N4_3  and  C8_14
REMARK    2  A    between atoms: N5_4  and  C17_12
REMARK    3  A    between atoms: N6_5  and  C18_13
REMARK    4  A    between atoms: C8_14  and  C9_15
REMARK    5  A    between atoms: C9_15  and  C10_16
REMARK    6  A    between atoms: C10_16  and  C15_17
REMARK    7  A    between atoms: C15_17  and  C19_18
REMARK    8  A    between atoms: C19_18  and  C20_19
REMARK                            x       y       z     vdW  Elec       q    Type
REMARK                         _______ _______ _______ _____ _____    ______ ____
ROOT
ATOM      1  O1  UNK     0      -1.650   2.282   0.486  0.00  0.00    +0.000 OA
ATOM      2  O2  UNK     0       0.243  -1.703   1.764  0.00  0.00    +0.000 OA
ATOM      3  N4  UNK     0      -0.654   0.321   1.161  0.00  0.00    +0.000 N 
ATOM      4  N5  UNK     0      -1.511  -1.758   0.307  0.00  0.00    +0.000 N 
ATOM      5  N6  UNK     0      -3.521   0.725  -1.098  0.00  0.00    +0.000 N 
ATOM      6  N7  UNK     0      -3.420  -1.537  -1.170  0.00  0.00    +0.000 NA
ATOM      7  C11 UNK     0      -2.504   0.305  -0.327  0.00  0.00    +0.000 A 
ATOM      8  C12 UNK     0      -1.599   1.021   0.444  0.00  0.00    +0.000 A 
ATOM      9  C13 UNK     0      -2.447  -1.045  -0.376  0.00  0.00    +0.000 A 
ATOM     10  C14 UNK     0      -0.618  -1.064   1.096  0.00  0.00    +0.000 A 
ATOM     11  C16 UNK     0      -4.058  -0.416  -1.595  0.00  0.00    +0.000 A 
ATOM     12  C17 UNK     0      -1.497  -3.226   0.257  0.00  0.00    +0.000 C 
ATOM     13  C18 UNK     0      -3.970   2.091  -1.351  0.00  0.00    +0.000 C 
ENDROOT
BRANCH   3  14
ATOM     14  C8  UNK     0       0.333   1.059   1.978  0.00  0.00    +0.000 C 
BRANCH  14  15
ATOM     15  C9  UNK     0       1.476   1.614   1.115  0.00  0.00    +0.000 C 
BRANCH  15  16
ATOM     16  C10 UNK     0       2.310   0.501   0.466  0.00  0.00    +0.000 C 
BRANCH  16  17
ATOM     17  C15 UNK     0       3.502   1.085  -0.308  0.00  0.00    +0.000 C 
BRANCH  17  18
ATOM     18  C19 UNK     0       4.367   0.051  -0.993  0.00  0.00    +0.000 C 
ATOM     19  C20 UNK     0       4.083  -1.425  -0.932  0.00  0.00    +0.000 C 
ATOM     20  O3  UNK     0       5.339   0.435  -1.626  0.00  0.00    +0.000 OA
ENDBRANCH  17  18
ENDBRANCH  16  17
ENDBRANCH  15  16
ENDBRANCH  14  15
ENDBRANCH   3  14
TORSDOF 5
