REMARK  Name = C:\Users\Maximilian\Desktop\Conformers\converted_pdb\conformers_pdb\Pentoxifylline_conf_6.pdb
REMARK  8 active torsions:
REMARK  status: ('A' for Active; 'I' for Inactive)
REMARK    1  A    between atoms: N4_3  and  C8_14
REMARK    2  A    between atoms: N5_4  and  C17_12
REMARK    3  A    between atoms: N6_5  and  C18_13
REMARK    4  A    between atoms: C8_14  and  C9_15
REMARK    5  A    between atoms: C9_15  and  C10_16
REMARK    6  A    between atoms: C10_16  and  C15_17
REMARK    7  A    between atoms: C15_17  and  C19_18
REMARK    8  A    between atoms: C19_18  and  C20_19
REMARK                            x       y       z     vdW  Elec       q    Type
REMARK                         _______ _______ _______ _____ _____    ______ ____
ROOT
ATOM      1  O1  UNK     0      -0.663   1.829   0.123  0.00  0.00    +0.000 OA
ATOM      2  O2  UNK     0      -1.173  -2.623   1.121  0.00  0.00    +0.000 OA
ATOM      3  N4  UNK     0      -0.867  -0.392   0.686  0.00  0.00    +0.000 N 
ATOM      4  N5  UNK     0      -2.994  -1.468   0.373  0.00  0.00    +0.000 N 
ATOM      5  N6  UNK     0      -3.456   1.830  -0.672  0.00  0.00    +0.000 N 
ATOM      6  N7  UNK     0      -4.728  -0.039  -0.535  0.00  0.00    +0.000 NA
ATOM      7  C11 UNK     0      -2.714   0.829  -0.170  0.00  0.00    +0.000 A 
ATOM      8  C12 UNK     0      -1.381   0.796   0.214  0.00  0.00    +0.000 A 
ATOM      9  C13 UNK     0      -3.479  -0.283  -0.088  0.00  0.00    +0.000 A 
ATOM     10  C14 UNK     0      -1.666  -1.524   0.740  0.00  0.00    +0.000 A 
ATOM     11  C16 UNK     0      -4.673   1.273  -0.884  0.00  0.00    +0.000 A 
ATOM     12  C17 UNK     0      -3.841  -2.667   0.400  0.00  0.00    +0.000 C 
ATOM     13  C18 UNK     0      -3.058   3.206  -0.954  0.00  0.00    +0.000 C 
ENDROOT
BRANCH   3  14
ATOM     14  C8  UNK     0       0.555  -0.472   1.074  0.00  0.00    +0.000 C 
BRANCH  14  15
ATOM     15  C9  UNK     0       1.417  -0.830  -0.145  0.00  0.00    +0.000 C 
BRANCH  15  16
ATOM     16  C10 UNK     0       2.893  -1.059   0.217  0.00  0.00    +0.000 C 
BRANCH  16  17
ATOM     17  C15 UNK     0       3.618   0.242   0.592  0.00  0.00    +0.000 C 
BRANCH  17  18
ATOM     18  C19 UNK     0       5.088  -0.011   0.798  0.00  0.00    +0.000 C 
ATOM     19  C20 UNK     0       6.118   0.563  -0.130  0.00  0.00    +0.000 C 
ATOM     20  O3  UNK     0       5.455  -0.689   1.745  0.00  0.00    +0.000 OA
ENDBRANCH  17  18
ENDBRANCH  16  17
ENDBRANCH  15  16
ENDBRANCH  14  15
ENDBRANCH   3  14
TORSDOF 5
