REMARK  Name = C:\Users\Maximilian\Desktop\Conformers\converted_pdb\conformers_pdb\Pentoxifylline_conf_26.pdb
REMARK  8 active torsions:
REMARK  status: ('A' for Active; 'I' for Inactive)
REMARK    1  A    between atoms: N4_3  and  C8_14
REMARK    2  A    between atoms: N5_4  and  C17_12
REMARK    3  A    between atoms: N6_5  and  C18_13
REMARK    4  A    between atoms: C8_14  and  C9_15
REMARK    5  A    between atoms: C9_15  and  C10_16
REMARK    6  A    between atoms: C10_16  and  C15_17
REMARK    7  A    between atoms: C15_17  and  C19_18
REMARK    8  A    between atoms: C19_18  and  C20_19
REMARK                            x       y       z     vdW  Elec       q    Type
REMARK                         _______ _______ _______ _____ _____    ______ ____
ROOT
ATOM      1  O1  UNK     0      -1.259   1.742  -0.643  0.00  0.00    +0.000 OA
ATOM      2  O2  UNK     0      -0.659  -2.808  -0.516  0.00  0.00    +0.000 OA
ATOM      3  N4  UNK     0      -0.917  -0.533  -0.649  0.00  0.00    +0.000 N 
ATOM      4  N5  UNK     0      -2.638  -1.958   0.239  0.00  0.00    +0.000 N 
ATOM      5  N6  UNK     0      -3.857   1.294   0.576  0.00  0.00    +0.000 N 
ATOM      6  N7  UNK     0      -4.591  -0.791   1.072  0.00  0.00    +0.000 NA
ATOM      7  C11 UNK     0      -2.929   0.400   0.199  0.00  0.00    +0.000 A 
ATOM      8  C12 UNK     0      -1.680   0.582  -0.380  0.00  0.00    +0.000 A 
ATOM      9  C13 UNK     0      -3.373  -0.843   0.495  0.00  0.00    +0.000 A 
ATOM     10  C14 UNK     0      -1.387  -1.795  -0.316  0.00  0.00    +0.000 A 
ATOM     11  C16 UNK     0      -4.854   0.542   1.103  0.00  0.00    +0.000 A 
ATOM     12  C17 UNK     0      -3.133  -3.288   0.621  0.00  0.00    +0.000 C 
ATOM     13  C18 UNK     0      -3.816   2.749   0.472  0.00  0.00    +0.000 C 
ENDROOT
BRANCH   3  14
ATOM     14  C8  UNK     0       0.428  -0.377  -1.236  0.00  0.00    +0.000 C 
BRANCH  14  15
ATOM     15  C9  UNK     0       1.475  -0.216  -0.129  0.00  0.00    +0.000 C 
BRANCH  15  16
ATOM     16  C10 UNK     0       2.881  -0.050  -0.716  0.00  0.00    +0.000 C 
BRANCH  16  17
ATOM     17  C15 UNK     0       3.926   0.108   0.394  0.00  0.00    +0.000 C 
BRANCH  17  18
ATOM     18  C19 UNK     0       5.303   0.282  -0.191  0.00  0.00    +0.000 C 
ATOM     19  C20 UNK     0       6.052   1.575  -0.058  0.00  0.00    +0.000 C 
ATOM     20  O3  UNK     0       5.829  -0.652  -0.778  0.00  0.00    +0.000 OA
ENDBRANCH  17  18
ENDBRANCH  16  17
ENDBRANCH  15  16
ENDBRANCH  14  15
ENDBRANCH   3  14
TORSDOF 5
