REMARK  Name = C:\Users\Maximilian\Desktop\Conformers\converted_pdb\conformers_pdb\Pentoxifylline_conf_33.pdb
REMARK  8 active torsions:
REMARK  status: ('A' for Active; 'I' for Inactive)
REMARK    1  A    between atoms: N4_3  and  C8_14
REMARK    2  A    between atoms: N5_4  and  C17_12
REMARK    3  A    between atoms: N6_5  and  C18_13
REMARK    4  A    between atoms: C8_14  and  C9_15
REMARK    5  A    between atoms: C9_15  and  C10_16
REMARK    6  A    between atoms: C10_16  and  C15_17
REMARK    7  A    between atoms: C15_17  and  C19_18
REMARK    8  A    between atoms: C19_18  and  C20_19
REMARK                            x       y       z     vdW  Elec       q    Type
REMARK                         _______ _______ _______ _____ _____    ______ ____
ROOT
ATOM      1  O1  UNK     0      -1.453   1.897   0.619  0.00  0.00    +0.000 OA
ATOM      2  O2  UNK     0      -0.210  -2.503   1.041  0.00  0.00    +0.000 OA
ATOM      3  N4  UNK     0      -0.775  -0.287   0.870  0.00  0.00    +0.000 N 
ATOM      4  N5  UNK     0      -2.368  -2.040   0.461  0.00  0.00    +0.000 N 
ATOM      5  N6  UNK     0      -4.121   0.941  -0.014  0.00  0.00    +0.000 N 
ATOM      6  N7  UNK     0      -4.600  -1.272  -0.091  0.00  0.00    +0.000 NA
ATOM      7  C11 UNK     0      -3.011   0.240   0.274  0.00  0.00    +0.000 A 
ATOM      8  C12 UNK     0      -1.729   0.667   0.591  0.00  0.00    +0.000 A 
ATOM      9  C13 UNK     0      -3.303  -1.080   0.224  0.00  0.00    +0.000 A 
ATOM     10  C14 UNK     0      -1.095  -1.634   0.798  0.00  0.00    +0.000 A 
ATOM     11  C16 UNK     0      -5.068  -0.004  -0.229  0.00  0.00    +0.000 A 
ATOM     12  C17 UNK     0      -2.725  -3.464   0.423  0.00  0.00    +0.000 C 
ATOM     13  C18 UNK     0      -4.293   2.389  -0.078  0.00  0.00    +0.000 C 
ENDROOT
BRANCH   3  14
ATOM     14  C8  UNK     0       0.604   0.129   1.196  0.00  0.00    +0.000 C 
BRANCH  14  15
ATOM     15  C9  UNK     0       1.441   0.237  -0.083  0.00  0.00    +0.000 C 
BRANCH  15  16
ATOM     16  C10 UNK     0       2.879   0.668   0.231  0.00  0.00    +0.000 C 
BRANCH  16  17
ATOM     17  C15 UNK     0       3.713   0.775  -1.050  0.00  0.00    +0.000 C 
BRANCH  17  18
ATOM     18  C19 UNK     0       5.126   1.182  -0.734  0.00  0.00    +0.000 C 
ATOM     19  C20 UNK     0       6.263   0.239  -0.991  0.00  0.00    +0.000 C 
ATOM     20  O3  UNK     0       5.351   2.295  -0.284  0.00  0.00    +0.000 OA
ENDBRANCH  17  18
ENDBRANCH  16  17
ENDBRANCH  15  16
ENDBRANCH  14  15
ENDBRANCH   3  14
TORSDOF 5
