REMARK  Name = C:\Users\Maximilian\Desktop\Conformers\converted_pdb\conformers_pdb\Pentoxifylline_conf_37.pdb
REMARK  8 active torsions:
REMARK  status: ('A' for Active; 'I' for Inactive)
REMARK    1  A    between atoms: N4_3  and  C8_14
REMARK    2  A    between atoms: N5_4  and  C17_12
REMARK    3  A    between atoms: N6_5  and  C18_13
REMARK    4  A    between atoms: C8_14  and  C9_15
REMARK    5  A    between atoms: C9_15  and  C10_16
REMARK    6  A    between atoms: C10_16  and  C15_17
REMARK    7  A    between atoms: C15_17  and  C19_18
REMARK    8  A    between atoms: C19_18  and  C20_19
REMARK                            x       y       z     vdW  Elec       q    Type
REMARK                         _______ _______ _______ _____ _____    ______ ____
ROOT
ATOM      1  O1  UNK     0       0.044  -1.471  -0.441  0.00  0.00    +0.000 OA
ATOM      2  O2  UNK     0      -1.117   2.970  -0.335  0.00  0.00    +0.000 OA
ATOM      3  N4  UNK     0      -0.479   0.770  -0.442  0.00  0.00    +0.000 N 
ATOM      4  N5  UNK     0      -2.783   1.415  -0.211  0.00  0.00    +0.000 N 
ATOM      5  N6  UNK     0      -2.780  -2.075  -0.132  0.00  0.00    +0.000 N 
ATOM      6  N7  UNK     0      -4.335  -0.433   0.011  0.00  0.00    +0.000 NA
ATOM      7  C11 UNK     0      -2.171  -0.881  -0.235  0.00  0.00    +0.000 A 
ATOM      8  C12 UNK     0      -0.828  -0.561  -0.379  0.00  0.00    +0.000 A 
ATOM      9  C13 UNK     0      -3.104   0.094  -0.152  0.00  0.00    +0.000 A 
ATOM     10  C14 UNK     0      -1.452   1.751  -0.332  0.00  0.00    +0.000 A 
ATOM     11  C16 UNK     0      -4.092  -1.770   0.017  0.00  0.00    +0.000 A 
ATOM     12  C17 UNK     0      -3.818   2.447  -0.066  0.00  0.00    +0.000 C 
ATOM     13  C18 UNK     0      -2.183  -3.406  -0.150  0.00  0.00    +0.000 C 
ENDROOT
BRANCH   3  14
ATOM     14  C8  UNK     0       0.944   1.147  -0.561  0.00  0.00    +0.000 C 
BRANCH  14  15
ATOM     15  C9  UNK     0       1.578   1.258   0.832  0.00  0.00    +0.000 C 
BRANCH  15  16
ATOM     16  C10 UNK     0       3.036   1.752   0.790  0.00  0.00    +0.000 C 
BRANCH  16  17
ATOM     17  C15 UNK     0       4.016   0.758   0.144  0.00  0.00    +0.000 C 
BRANCH  17  18
ATOM     18  C19 UNK     0       4.062  -0.555   0.884  0.00  0.00    +0.000 C 
ATOM     19  C20 UNK     0       3.568  -1.823   0.252  0.00  0.00    +0.000 C 
ATOM     20  O3  UNK     0       4.512  -0.591   2.019  0.00  0.00    +0.000 OA
ENDBRANCH  17  18
ENDBRANCH  16  17
ENDBRANCH  15  16
ENDBRANCH  14  15
ENDBRANCH   3  14
TORSDOF 5
