REMARK  Name = C:\Users\Maximilian\Desktop\Conformers\converted_pdb\conformers_pdb\Pentoxifylline_conf_12.pdb
REMARK  8 active torsions:
REMARK  status: ('A' for Active; 'I' for Inactive)
REMARK    1  A    between atoms: N4_3  and  C8_14
REMARK    2  A    between atoms: N5_4  and  C17_12
REMARK    3  A    between atoms: N6_5  and  C18_13
REMARK    4  A    between atoms: C8_14  and  C9_15
REMARK    5  A    between atoms: C9_15  and  C10_16
REMARK    6  A    between atoms: C10_16  and  C15_17
REMARK    7  A    between atoms: C15_17  and  C19_18
REMARK    8  A    between atoms: C19_18  and  C20_19
REMARK                            x       y       z     vdW  Elec       q    Type
REMARK                         _______ _______ _______ _____ _____    ______ ____
ROOT
ATOM      1  O1  UNK     0      -0.339   1.652   0.638  0.00  0.00    +0.000 OA
ATOM      2  O2  UNK     0      -0.992  -2.891   0.829  0.00  0.00    +0.000 OA
ATOM      3  N4  UNK     0      -0.594  -0.634   0.745  0.00  0.00    +0.000 N 
ATOM      4  N5  UNK     0      -2.629  -1.600  -0.098  0.00  0.00    +0.000 N 
ATOM      5  N6  UNK     0      -2.972   1.841  -0.564  0.00  0.00    +0.000 N 
ATOM      6  N7  UNK     0      -4.234   0.001  -0.954  0.00  0.00    +0.000 NA
ATOM      7  C11 UNK     0      -2.296   0.751  -0.164  0.00  0.00    +0.000 A 
ATOM      8  C12 UNK     0      -1.042   0.628   0.417  0.00  0.00    +0.000 A 
ATOM      9  C13 UNK     0      -3.053  -0.344  -0.401  0.00  0.00    +0.000 A 
ATOM     10  C14 UNK     0      -1.394  -1.740   0.499  0.00  0.00    +0.000 A 
ATOM     11  C16 UNK     0      -4.144   1.354  -1.038  0.00  0.00    +0.000 A 
ATOM     12  C17 UNK     0      -3.494  -2.764  -0.334  0.00  0.00    +0.000 C 
ATOM     13  C18 UNK     0      -2.562   3.240  -0.503  0.00  0.00    +0.000 C 
ENDROOT
BRANCH   3  14
ATOM     14  C8  UNK     0       0.742  -0.817   1.352  0.00  0.00    +0.000 C 
BRANCH  14  15
ATOM     15  C9  UNK     0       1.770  -1.319   0.322  0.00  0.00    +0.000 C 
BRANCH  15  16
ATOM     16  C10 UNK     0       2.064  -0.320  -0.814  0.00  0.00    +0.000 C 
BRANCH  16  17
ATOM     17  C15 UNK     0       2.863   0.917  -0.370  0.00  0.00    +0.000 C 
BRANCH  17  18
ATOM     18  C19 UNK     0       4.245   0.558   0.110  0.00  0.00    +0.000 C 
ATOM     19  C20 UNK     0       5.324   0.177  -0.859  0.00  0.00    +0.000 C 
ATOM     20  O3  UNK     0       4.487   0.554   1.307  0.00  0.00    +0.000 OA
ENDBRANCH  17  18
ENDBRANCH  16  17
ENDBRANCH  15  16
ENDBRANCH  14  15
ENDBRANCH   3  14
TORSDOF 5
