REMARK  Name = C:\Users\Maximilian\Desktop\Conformers\converted_pdb\conformers_pdb\Pentoxifylline_conf_34.pdb
REMARK  8 active torsions:
REMARK  status: ('A' for Active; 'I' for Inactive)
REMARK    1  A    between atoms: N4_3  and  C8_14
REMARK    2  A    between atoms: N5_4  and  C17_12
REMARK    3  A    between atoms: N6_5  and  C18_13
REMARK    4  A    between atoms: C8_14  and  C9_15
REMARK    5  A    between atoms: C9_15  and  C10_16
REMARK    6  A    between atoms: C10_16  and  C15_17
REMARK    7  A    between atoms: C15_17  and  C19_18
REMARK    8  A    between atoms: C19_18  and  C20_19
REMARK                            x       y       z     vdW  Elec       q    Type
REMARK                         _______ _______ _______ _____ _____    ______ ____
ROOT
ATOM      1  O1  UNK     0      -1.910   1.857   0.920  0.00  0.00    +0.000 OA
ATOM      2  O2  UNK     0       1.279   0.803  -2.215  0.00  0.00    +0.000 OA
ATOM      3  N4  UNK     0      -0.281   1.390  -0.635  0.00  0.00    +0.000 N 
ATOM      4  N5  UNK     0      -0.437  -0.661  -1.883  0.00  0.00    +0.000 N 
ATOM      5  N6  UNK     0      -3.164  -0.685   0.294  0.00  0.00    +0.000 N 
ATOM      6  N7  UNK     0      -2.307  -2.077  -1.275  0.00  0.00    +0.000 NA
ATOM      7  C11 UNK     0      -2.064  -0.127  -0.236  0.00  0.00    +0.000 A 
ATOM      8  C12 UNK     0      -1.435   1.077   0.049  0.00  0.00    +0.000 A 
ATOM      9  C13 UNK     0      -1.558  -0.961  -1.172  0.00  0.00    +0.000 A 
ATOM     10  C14 UNK     0       0.215   0.519  -1.596  0.00  0.00    +0.000 A 
ATOM     11  C16 UNK     0      -3.286  -1.869  -0.355  0.00  0.00    +0.000 A 
ATOM     12  C17 UNK     0       0.100  -1.601  -2.876  0.00  0.00    +0.000 C 
ATOM     13  C18 UNK     0      -4.033  -0.167   1.346  0.00  0.00    +0.000 C 
ENDROOT
BRANCH   3  14
ATOM     14  C8  UNK     0       0.435   2.643  -0.317  0.00  0.00    +0.000 C 
BRANCH  14  15
ATOM     15  C9  UNK     0       1.226   2.540   1.001  0.00  0.00    +0.000 C 
BRANCH  15  16
ATOM     16  C10 UNK     0       2.344   1.480   0.969  0.00  0.00    +0.000 C 
BRANCH  16  17
ATOM     17  C15 UNK     0       1.885   0.130   1.540  0.00  0.00    +0.000 C 
BRANCH  17  18
ATOM     18  C19 UNK     0       2.936  -0.926   1.326  0.00  0.00    +0.000 C 
ATOM     19  C20 UNK     0       2.685  -2.108   0.436  0.00  0.00    +0.000 C 
ATOM     20  O3  UNK     0       4.014  -0.827   1.894  0.00  0.00    +0.000 OA
ENDBRANCH  17  18
ENDBRANCH  16  17
ENDBRANCH  15  16
ENDBRANCH  14  15
ENDBRANCH   3  14
TORSDOF 5
