REMARK  Name = C:\Users\Maximilian\Desktop\Conformers\converted_pdb\conformers_pdb\Pentoxifylline_conf_17.pdb
REMARK  8 active torsions:
REMARK  status: ('A' for Active; 'I' for Inactive)
REMARK    1  A    between atoms: N4_3  and  C8_14
REMARK    2  A    between atoms: N5_4  and  C17_12
REMARK    3  A    between atoms: N6_5  and  C18_13
REMARK    4  A    between atoms: C8_14  and  C9_15
REMARK    5  A    between atoms: C9_15  and  C10_16
REMARK    6  A    between atoms: C10_16  and  C15_17
REMARK    7  A    between atoms: C15_17  and  C19_18
REMARK    8  A    between atoms: C19_18  and  C20_19
REMARK                            x       y       z     vdW  Elec       q    Type
REMARK                         _______ _______ _______ _____ _____    ______ ____
ROOT
ATOM      1  O1  UNK     0      -1.100  -2.062  -0.897  0.00  0.00    +0.000 OA
ATOM      2  O2  UNK     0      -0.501   2.356   0.202  0.00  0.00    +0.000 OA
ATOM      3  N4  UNK     0      -0.738   0.151  -0.383  0.00  0.00    +0.000 N 
ATOM      4  N5  UNK     0      -2.611   1.492   0.308  0.00  0.00    +0.000 N 
ATOM      5  N6  UNK     0      -3.931  -1.663  -0.385  0.00  0.00    +0.000 N 
ATOM      6  N7  UNK     0      -4.744   0.342   0.286  0.00  0.00    +0.000 NA
ATOM      7  C11 UNK     0      -2.917  -0.787  -0.291  0.00  0.00    +0.000 A 
ATOM      8  C12 UNK     0      -1.560  -0.943  -0.539  0.00  0.00    +0.000 A 
ATOM      9  C13 UNK     0      -3.408   0.407   0.112  0.00  0.00    +0.000 A 
ATOM     10  C14 UNK     0      -1.264   1.360   0.046  0.00  0.00    +0.000 A 
ATOM     11  C16 UNK     0      -5.027  -0.949  -0.030  0.00  0.00    +0.000 A 
ATOM     12  C17 UNK     0      -3.180   2.781   0.723  0.00  0.00    +0.000 C 
ATOM     13  C18 UNK     0      -3.888  -3.066  -0.785  0.00  0.00    +0.000 C 
ENDROOT
BRANCH   3  14
ATOM     14  C8  UNK     0       0.712   0.020  -0.622  0.00  0.00    +0.000 C 
BRANCH  14  15
ATOM     15  C9  UNK     0       1.430  -0.371   0.677  0.00  0.00    +0.000 C 
BRANCH  15  16
ATOM     16  C10 UNK     0       2.926  -0.653   0.468  0.00  0.00    +0.000 C 
BRANCH  16  17
ATOM     17  C15 UNK     0       3.732   0.620   0.175  0.00  0.00    +0.000 C 
BRANCH  17  18
ATOM     18  C19 UNK     0       5.205   0.317   0.127  0.00  0.00    +0.000 C 
ATOM     19  C20 UNK     0       6.133   0.898   1.150  0.00  0.00    +0.000 C 
ATOM     20  O3  UNK     0       5.650  -0.392  -0.763  0.00  0.00    +0.000 OA
ENDBRANCH  17  18
ENDBRANCH  16  17
ENDBRANCH  15  16
ENDBRANCH  14  15
ENDBRANCH   3  14
TORSDOF 5
