REMARK  Name = C:\Users\Maximilian\Desktop\Conformers\converted_pdb\conformers_pdb\Pentoxifylline_conf_10.pdb
REMARK  8 active torsions:
REMARK  status: ('A' for Active; 'I' for Inactive)
REMARK    1  A    between atoms: N4_3  and  C8_14
REMARK    2  A    between atoms: N5_4  and  C17_12
REMARK    3  A    between atoms: N6_5  and  C18_13
REMARK    4  A    between atoms: C8_14  and  C9_15
REMARK    5  A    between atoms: C9_15  and  C10_16
REMARK    6  A    between atoms: C10_16  and  C15_17
REMARK    7  A    between atoms: C15_17  and  C19_18
REMARK    8  A    between atoms: C19_18  and  C20_19
REMARK                            x       y       z     vdW  Elec       q    Type
REMARK                         _______ _______ _______ _____ _____    ______ ____
ROOT
ATOM      1  O1  UNK     0       0.118   0.831   1.435  0.00  0.00    +0.000 OA
ATOM      2  O2  UNK     0      -1.379   0.173  -2.856  0.00  0.00    +0.000 OA
ATOM      3  N4  UNK     0      -0.574   0.552  -0.741  0.00  0.00    +0.000 N 
ATOM      4  N5  UNK     0      -2.920   0.248  -1.173  0.00  0.00    +0.000 N 
ATOM      5  N6  UNK     0      -2.649   0.607   2.288  0.00  0.00    +0.000 N 
ATOM      6  N7  UNK     0      -4.324   0.264   0.801  0.00  0.00    +0.000 NA
ATOM      7  C11 UNK     0      -2.134   0.558   1.048  0.00  0.00    +0.000 A 
ATOM      8  C12 UNK     0      -0.821   0.657   0.610  0.00  0.00    +0.000 A 
ATOM      9  C13 UNK     0      -3.138   0.356   0.165  0.00  0.00    +0.000 A 
ATOM     10  C14 UNK     0      -1.619   0.323  -1.624  0.00  0.00    +0.000 A 
ATOM     11  C16 UNK     0      -3.980   0.425   2.106  0.00  0.00    +0.000 A 
ATOM     12  C17 UNK     0      -4.030  -0.021  -2.097  0.00  0.00    +0.000 C 
ATOM     13  C18 UNK     0      -1.952   0.790   3.557  0.00  0.00    +0.000 C 
ENDROOT
BRANCH   3  14
ATOM     14  C8  UNK     0       0.814   0.619  -1.241  0.00  0.00    +0.000 C 
BRANCH  14  15
ATOM     15  C9  UNK     0       1.445  -0.781  -1.239  0.00  0.00    +0.000 C 
BRANCH  15  16
ATOM     16  C10 UNK     0       2.824  -0.816  -1.923  0.00  0.00    +0.000 C 
BRANCH  16  17
ATOM     17  C15 UNK     0       3.923  -0.059  -1.160  0.00  0.00    +0.000 C 
BRANCH  17  18
ATOM     18  C19 UNK     0       4.182  -0.649   0.200  0.00  0.00    +0.000 C 
ATOM     19  C20 UNK     0       3.956   0.166   1.437  0.00  0.00    +0.000 C 
ATOM     20  O3  UNK     0       4.603  -1.792   0.296  0.00  0.00    +0.000 OA
ENDBRANCH  17  18
ENDBRANCH  16  17
ENDBRANCH  15  16
ENDBRANCH  14  15
ENDBRANCH   3  14
TORSDOF 5
