REMARK  Name = C:\Users\Maximilian\Desktop\Conformers\converted_pdb\conformers_pdb\Pentoxifylline_conf_31.pdb
REMARK  8 active torsions:
REMARK  status: ('A' for Active; 'I' for Inactive)
REMARK    1  A    between atoms: N4_3  and  C8_14
REMARK    2  A    between atoms: N5_4  and  C17_12
REMARK    3  A    between atoms: N6_5  and  C18_13
REMARK    4  A    between atoms: C8_14  and  C9_15
REMARK    5  A    between atoms: C9_15  and  C10_16
REMARK    6  A    between atoms: C10_16  and  C15_17
REMARK    7  A    between atoms: C15_17  and  C19_18
REMARK    8  A    between atoms: C19_18  and  C20_19
REMARK                            x       y       z     vdW  Elec       q    Type
REMARK                         _______ _______ _______ _____ _____    ______ ____
ROOT
ATOM      1  O1  UNK     0      -0.768  -1.575   1.489  0.00  0.00    +0.000 OA
ATOM      2  O2  UNK     0      -0.461  -0.573  -2.983  0.00  0.00    +0.000 OA
ATOM      3  N4  UNK     0      -0.556  -1.110  -0.754  0.00  0.00    +0.000 N 
ATOM      4  N5  UNK     0      -2.122   0.409  -1.767  0.00  0.00    +0.000 N 
ATOM      5  N6  UNK     0      -3.088   0.169   1.578  0.00  0.00    +0.000 N 
ATOM      6  N7  UNK     0      -3.825   1.258  -0.266  0.00  0.00    +0.000 NA
ATOM      7  C11 UNK     0      -2.291  -0.135   0.540  0.00  0.00    +0.000 A 
ATOM      8  C12 UNK     0      -1.183  -0.966   0.464  0.00  0.00    +0.000 A 
ATOM      9  C13 UNK     0      -2.735   0.520  -0.557  0.00  0.00    +0.000 A 
ATOM     10  C14 UNK     0      -1.031  -0.429  -1.865  0.00  0.00    +0.000 A 
ATOM     11  C16 UNK     0      -4.010   1.016   1.058  0.00  0.00    +0.000 A 
ATOM     12  C17 UNK     0      -2.650   1.109  -2.945  0.00  0.00    +0.000 C 
ATOM     13  C18 UNK     0      -3.005  -0.300   2.958  0.00  0.00    +0.000 C 
ENDROOT
BRANCH   3  14
ATOM     14  C8  UNK     0       0.638  -1.975  -0.860  0.00  0.00    +0.000 C 
BRANCH  14  15
ATOM     15  C9  UNK     0       1.897  -1.263  -0.341  0.00  0.00    +0.000 C 
BRANCH  15  16
ATOM     16  C10 UNK     0       2.281  -0.053  -1.208  0.00  0.00    +0.000 C 
BRANCH  16  17
ATOM     17  C15 UNK     0       3.598   0.587  -0.749  0.00  0.00    +0.000 C 
BRANCH  17  18
ATOM     18  C19 UNK     0       3.462   1.238   0.604  0.00  0.00    +0.000 C 
ATOM     19  C20 UNK     0       4.187   0.704   1.803  0.00  0.00    +0.000 C 
ATOM     20  O3  UNK     0       2.751   2.224   0.729  0.00  0.00    +0.000 OA
ENDBRANCH  17  18
ENDBRANCH  16  17
ENDBRANCH  15  16
ENDBRANCH  14  15
ENDBRANCH   3  14
TORSDOF 5
