REMARK  Name = C:\Users\Maximilian\Desktop\Conformers\converted_pdb\conformers_pdb\Pentoxifylline_conf_46.pdb
REMARK  8 active torsions:
REMARK  status: ('A' for Active; 'I' for Inactive)
REMARK    1  A    between atoms: N4_3  and  C8_14
REMARK    2  A    between atoms: N5_4  and  C17_12
REMARK    3  A    between atoms: N6_5  and  C18_13
REMARK    4  A    between atoms: C8_14  and  C9_15
REMARK    5  A    between atoms: C9_15  and  C10_16
REMARK    6  A    between atoms: C10_16  and  C15_17
REMARK    7  A    between atoms: C15_17  and  C19_18
REMARK    8  A    between atoms: C19_18  and  C20_19
REMARK                            x       y       z     vdW  Elec       q    Type
REMARK                         _______ _______ _______ _____ _____    ______ ____
ROOT
ATOM      1  O1  UNK     0      -1.582  -1.148   1.878  0.00  0.00    +0.000 OA
ATOM      2  O2  UNK     0       0.382  -0.569  -2.234  0.00  0.00    +0.000 OA
ATOM      3  N4  UNK     0      -0.542  -0.892  -0.158  0.00  0.00    +0.000 N 
ATOM      4  N5  UNK     0      -1.741   0.207  -1.929  0.00  0.00    +0.000 N 
ATOM      5  N6  UNK     0      -3.894   0.248   0.816  0.00  0.00    +0.000 N 
ATOM      6  N7  UNK     0      -3.948   1.002  -1.319  0.00  0.00    +0.000 NA
ATOM      7  C11 UNK     0      -2.738  -0.067   0.209  0.00  0.00    +0.000 A 
ATOM      8  C12 UNK     0      -1.614  -0.723   0.691  0.00  0.00    +0.000 A 
ATOM      9  C13 UNK     0      -2.777   0.383  -1.065  0.00  0.00    +0.000 A 
ATOM     10  C14 UNK     0      -0.607  -0.423  -1.462  0.00  0.00    +0.000 A 
ATOM     11  C16 UNK     0      -4.607   0.898  -0.136  0.00  0.00    +0.000 A 
ATOM     12  C17 UNK     0      -1.803   0.742  -3.296  0.00  0.00    +0.000 C 
ATOM     13  C18 UNK     0      -4.305  -0.021   2.191  0.00  0.00    +0.000 C 
ENDROOT
BRANCH   3  14
ATOM     14  C8  UNK     0       0.681  -1.560   0.340  0.00  0.00    +0.000 C 
BRANCH  14  15
ATOM     15  C9  UNK     0       1.528  -0.619   1.215  0.00  0.00    +0.000 C 
BRANCH  15  16
ATOM     16  C10 UNK     0       2.114   0.589   0.458  0.00  0.00    +0.000 C 
BRANCH  16  17
ATOM     17  C15 UNK     0       3.240   0.225  -0.525  0.00  0.00    +0.000 C 
BRANCH  17  18
ATOM     18  C19 UNK     0       4.451  -0.327   0.179  0.00  0.00    +0.000 C 
ATOM     19  C20 UNK     0       5.375   0.570   0.947  0.00  0.00    +0.000 C 
ATOM     20  O3  UNK     0       4.674  -1.528   0.146  0.00  0.00    +0.000 OA
ENDBRANCH  17  18
ENDBRANCH  16  17
ENDBRANCH  15  16
ENDBRANCH  14  15
ENDBRANCH   3  14
TORSDOF 5
