REMARK  Name = C:\Users\Maximilian\Desktop\Conformers\converted_pdb\conformers_pdb\Pentoxifylline_conf_4.pdb
REMARK  8 active torsions:
REMARK  status: ('A' for Active; 'I' for Inactive)
REMARK    1  A    between atoms: N4_3  and  C8_14
REMARK    2  A    between atoms: N5_4  and  C17_12
REMARK    3  A    between atoms: N6_5  and  C18_13
REMARK    4  A    between atoms: C8_14  and  C9_15
REMARK    5  A    between atoms: C9_15  and  C10_16
REMARK    6  A    between atoms: C10_16  and  C15_17
REMARK    7  A    between atoms: C15_17  and  C19_18
REMARK    8  A    between atoms: C19_18  and  C20_19
REMARK                            x       y       z     vdW  Elec       q    Type
REMARK                         _______ _______ _______ _____ _____    ______ ____
ROOT
ATOM      1  O1  UNK     0      -0.903   0.853  -1.884  0.00  0.00    +0.000 OA
ATOM      2  O2  UNK     0      -0.824  -2.487   1.267  0.00  0.00    +0.000 OA
ATOM      3  N4  UNK     0      -0.804  -0.845  -0.335  0.00  0.00    +0.000 N 
ATOM      4  N5  UNK     0      -2.803  -1.420   0.871  0.00  0.00    +0.000 N 
ATOM      5  N6  UNK     0      -3.740   1.125  -1.326  0.00  0.00    +0.000 N 
ATOM      6  N7  UNK     0      -4.773  -0.167   0.222  0.00  0.00    +0.000 NA
ATOM      7  C11 UNK     0      -2.842   0.286  -0.782  0.00  0.00    +0.000 A 
ATOM      8  C12 UNK     0      -1.487   0.125  -1.034  0.00  0.00    +0.000 A 
ATOM      9  C13 UNK     0      -3.464  -0.480   0.142  0.00  0.00    +0.000 A 
ATOM     10  C14 UNK     0      -1.461  -1.608   0.619  0.00  0.00    +0.000 A 
ATOM     11  C16 UNK     0      -4.903   0.825  -0.698  0.00  0.00    +0.000 A 
ATOM     12  C17 UNK     0      -3.515  -2.253   1.850  0.00  0.00    +0.000 C 
ATOM     13  C18 UNK     0      -3.536   2.131  -2.363  0.00  0.00    +0.000 C 
ENDROOT
BRANCH   3  14
ATOM     14  C8  UNK     0       0.642  -1.034  -0.565  0.00  0.00    +0.000 C 
BRANCH  14  15
ATOM     15  C9  UNK     0       1.451  -0.136   0.376  0.00  0.00    +0.000 C 
BRANCH  15  16
ATOM     16  C10 UNK     0       2.957  -0.315   0.153  0.00  0.00    +0.000 C 
BRANCH  16  17
ATOM     17  C15 UNK     0       3.764   0.584   1.096  0.00  0.00    +0.000 C 
BRANCH  17  18
ATOM     18  C19 UNK     0       5.242   0.410   0.864  0.00  0.00    +0.000 C 
ATOM     19  C20 UNK     0       6.079   1.516   0.291  0.00  0.00    +0.000 C 
ATOM     20  O3  UNK     0       5.776  -0.649   1.156  0.00  0.00    +0.000 OA
ENDBRANCH  17  18
ENDBRANCH  16  17
ENDBRANCH  15  16
ENDBRANCH  14  15
ENDBRANCH   3  14
TORSDOF 5
