REMARK  Name = C:\Users\Maximilian\Desktop\Conformers\converted_pdb\conformers_pdb\Pentoxifylline_conf_45.pdb
REMARK  8 active torsions:
REMARK  status: ('A' for Active; 'I' for Inactive)
REMARK    1  A    between atoms: N4_3  and  C8_14
REMARK    2  A    between atoms: N5_4  and  C17_12
REMARK    3  A    between atoms: N6_5  and  C18_13
REMARK    4  A    between atoms: C8_14  and  C9_15
REMARK    5  A    between atoms: C9_15  and  C10_16
REMARK    6  A    between atoms: C10_16  and  C15_17
REMARK    7  A    between atoms: C15_17  and  C19_18
REMARK    8  A    between atoms: C19_18  and  C20_19
REMARK                            x       y       z     vdW  Elec       q    Type
REMARK                         _______ _______ _______ _____ _____    ______ ____
ROOT
ATOM      1  O1  UNK     0       0.017  -2.020   0.795  0.00  0.00    +0.000 OA
ATOM      2  O2  UNK     0      -1.485   0.151  -2.964  0.00  0.00    +0.000 OA
ATOM      3  N4  UNK     0      -0.678  -0.956  -1.125  0.00  0.00    +0.000 N 
ATOM      4  N5  UNK     0      -2.365   0.749  -0.945  0.00  0.00    +0.000 N 
ATOM      5  N6  UNK     0      -1.847  -0.395   2.311  0.00  0.00    +0.000 N 
ATOM      6  N7  UNK     0      -3.173   1.142   1.306  0.00  0.00    +0.000 NA
ATOM      7  C11 UNK     0      -1.604  -0.401   0.990  0.00  0.00    +0.000 A 
ATOM      8  C12 UNK     0      -0.722  -1.164   0.237  0.00  0.00    +0.000 A 
ATOM      9  C13 UNK     0      -2.396   0.520   0.396  0.00  0.00    +0.000 A 
ATOM     10  C14 UNK     0      -1.510  -0.014  -1.711  0.00  0.00    +0.000 A 
ATOM     11  C16 UNK     0      -2.804   0.551   2.472  0.00  0.00    +0.000 A 
ATOM     12  C17 UNK     0      -3.265   1.731  -1.563  0.00  0.00    +0.000 C 
ATOM     13  C18 UNK     0      -1.228  -1.206   3.355  0.00  0.00    +0.000 C 
ENDROOT
BRANCH   3  14
ATOM     14  C8  UNK     0       0.268  -1.720  -1.964  0.00  0.00    +0.000 C 
BRANCH  14  15
ATOM     15  C9  UNK     0       1.498  -0.882  -2.357  0.00  0.00    +0.000 C 
BRANCH  15  16
ATOM     16  C10 UNK     0       2.375  -0.473  -1.157  0.00  0.00    +0.000 C 
BRANCH  16  17
ATOM     17  C15 UNK     0       2.017   0.925  -0.619  0.00  0.00    +0.000 C 
BRANCH  17  18
ATOM     18  C19 UNK     0       2.805   1.348   0.600  0.00  0.00    +0.000 C 
ATOM     19  C20 UNK     0       3.783   0.443   1.298  0.00  0.00    +0.000 C 
ATOM     20  O3  UNK     0       2.624   2.471   1.046  0.00  0.00    +0.000 OA
ENDBRANCH  17  18
ENDBRANCH  16  17
ENDBRANCH  15  16
ENDBRANCH  14  15
ENDBRANCH   3  14
TORSDOF 5
