REMARK  Name = C:\Users\Maximilian\Desktop\Conformers\converted_pdb\conformers_pdb\Pentoxifylline_conf_43.pdb
REMARK  8 active torsions:
REMARK  status: ('A' for Active; 'I' for Inactive)
REMARK    1  A    between atoms: N4_3  and  C8_14
REMARK    2  A    between atoms: N5_4  and  C17_12
REMARK    3  A    between atoms: N6_5  and  C18_13
REMARK    4  A    between atoms: C8_14  and  C9_15
REMARK    5  A    between atoms: C9_15  and  C10_16
REMARK    6  A    between atoms: C10_16  and  C15_17
REMARK    7  A    between atoms: C15_17  and  C19_18
REMARK    8  A    between atoms: C19_18  and  C20_19
REMARK                            x       y       z     vdW  Elec       q    Type
REMARK                         _______ _______ _______ _____ _____    ______ ____
ROOT
ATOM      1  O1  UNK     0      -1.159   2.125   0.095  0.00  0.00    +0.000 OA
ATOM      2  O2  UNK     0      -0.309  -2.304  -0.769  0.00  0.00    +0.000 OA
ATOM      3  N4  UNK     0      -0.669  -0.072  -0.384  0.00  0.00    +0.000 N 
ATOM      4  N5  UNK     0      -2.485  -1.627  -0.637  0.00  0.00    +0.000 N 
ATOM      5  N6  UNK     0      -3.983   1.449   0.053  0.00  0.00    +0.000 N 
ATOM      6  N7  UNK     0      -4.690  -0.667  -0.343  0.00  0.00    +0.000 NA
ATOM      7  C11 UNK     0      -2.916   0.661  -0.160  0.00  0.00    +0.000 A 
ATOM      8  C12 UNK     0      -1.559   0.952  -0.144  0.00  0.00    +0.000 A 
ATOM      9  C13 UNK     0      -3.344  -0.600  -0.398  0.00  0.00    +0.000 A 
ATOM     10  C14 UNK     0      -1.133  -1.360  -0.604  0.00  0.00    +0.000 A 
ATOM     11  C16 UNK     0      -5.045   0.615  -0.064  0.00  0.00    +0.000 A 
ATOM     12  C17 UNK     0      -2.985  -2.993  -0.841  0.00  0.00    +0.000 C 
ATOM     13  C18 UNK     0      -4.015   2.875   0.363  0.00  0.00    +0.000 C 
ENDROOT
BRANCH   3  14
ATOM     14  C8  UNK     0       0.783   0.193  -0.343  0.00  0.00    +0.000 C 
BRANCH  14  15
ATOM     15  C9  UNK     0       1.319  -0.014   1.081  0.00  0.00    +0.000 C 
BRANCH  15  16
ATOM     16  C10 UNK     0       2.799   0.376   1.223  0.00  0.00    +0.000 C 
BRANCH  16  17
ATOM     17  C15 UNK     0       3.741  -0.629   0.545  0.00  0.00    +0.000 C 
BRANCH  17  18
ATOM     18  C19 UNK     0       5.180  -0.267   0.807  0.00  0.00    +0.000 C 
ATOM     19  C20 UNK     0       6.077   0.219  -0.294  0.00  0.00    +0.000 C 
ATOM     20  O3  UNK     0       5.633  -0.379   1.936  0.00  0.00    +0.000 OA
ENDBRANCH  17  18
ENDBRANCH  16  17
ENDBRANCH  15  16
ENDBRANCH  14  15
ENDBRANCH   3  14
TORSDOF 5
