REMARK  Name = C:\Users\Maximilian\Desktop\Conformers\converted_pdb\conformers_pdb\Pentoxifylline_conf_40.pdb
REMARK  8 active torsions:
REMARK  status: ('A' for Active; 'I' for Inactive)
REMARK    1  A    between atoms: N4_3  and  C8_14
REMARK    2  A    between atoms: N5_4  and  C17_12
REMARK    3  A    between atoms: N6_5  and  C18_13
REMARK    4  A    between atoms: C8_14  and  C9_15
REMARK    5  A    between atoms: C9_15  and  C10_16
REMARK    6  A    between atoms: C10_16  and  C15_17
REMARK    7  A    between atoms: C15_17  and  C19_18
REMARK    8  A    between atoms: C19_18  and  C20_19
REMARK                            x       y       z     vdW  Elec       q    Type
REMARK                         _______ _______ _______ _____ _____    ______ ____
ROOT
ATOM      1  O1  UNK     0      -0.681   1.600   1.688  0.00  0.00    +0.000 OA
ATOM      2  O2  UNK     0      -0.377  -2.906   0.844  0.00  0.00    +0.000 OA
ATOM      3  N4  UNK     0      -0.479  -0.661   1.314  0.00  0.00    +0.000 N 
ATOM      4  N5  UNK     0      -1.907  -1.686  -0.328  0.00  0.00    +0.000 N 
ATOM      5  N6  UNK     0      -2.713   1.709  -0.382  0.00  0.00    +0.000 N 
ATOM      6  N7  UNK     0      -3.372  -0.150  -1.497  0.00  0.00    +0.000 NA
ATOM      7  C11 UNK     0      -2.030   0.650   0.085  0.00  0.00    +0.000 A 
ATOM      8  C12 UNK     0      -1.046   0.568   1.059  0.00  0.00    +0.000 A 
ATOM      9  C13 UNK     0      -2.430  -0.456  -0.582  0.00  0.00    +0.000 A 
ATOM     10  C14 UNK     0      -0.910  -1.783   0.619  0.00  0.00    +0.000 A 
ATOM     11  C16 UNK     0      -3.518   1.192  -1.342  0.00  0.00    +0.000 A 
ATOM     12  C17 UNK     0      -2.337  -2.859  -1.100  0.00  0.00    +0.000 C 
ATOM     13  C18 UNK     0      -2.606   3.109   0.015  0.00  0.00    +0.000 C 
ENDROOT
BRANCH   3  14
ATOM     14  C8  UNK     0       0.602  -0.768   2.315  0.00  0.00    +0.000 C 
BRANCH  14  15
ATOM     15  C9  UNK     0       1.937  -0.209   1.790  0.00  0.00    +0.000 C 
BRANCH  15  16
ATOM     16  C10 UNK     0       2.525  -0.999   0.602  0.00  0.00    +0.000 C 
BRANCH  16  17
ATOM     17  C15 UNK     0       2.079  -0.481  -0.777  0.00  0.00    +0.000 C 
BRANCH  17  18
ATOM     18  C19 UNK     0       2.592   0.907  -1.057  0.00  0.00    +0.000 C 
ATOM     19  C20 UNK     0       4.037   1.148  -1.378  0.00  0.00    +0.000 C 
ATOM     20  O3  UNK     0       1.825   1.857  -1.006  0.00  0.00    +0.000 OA
ENDBRANCH  17  18
ENDBRANCH  16  17
ENDBRANCH  15  16
ENDBRANCH  14  15
ENDBRANCH   3  14
TORSDOF 5
