REMARK  Name = C:\Users\Maximilian\Desktop\Conformers\converted_pdb\conformers_pdb\Pentoxifylline_conf_7.pdb
REMARK  8 active torsions:
REMARK  status: ('A' for Active; 'I' for Inactive)
REMARK    1  A    between atoms: N4_3  and  C8_14
REMARK    2  A    between atoms: N5_4  and  C17_12
REMARK    3  A    between atoms: N6_5  and  C18_13
REMARK    4  A    between atoms: C8_14  and  C9_15
REMARK    5  A    between atoms: C9_15  and  C10_16
REMARK    6  A    between atoms: C10_16  and  C15_17
REMARK    7  A    between atoms: C15_17  and  C19_18
REMARK    8  A    between atoms: C19_18  and  C20_19
REMARK                            x       y       z     vdW  Elec       q    Type
REMARK                         _______ _______ _______ _____ _____    ______ ____
ROOT
ATOM      1  O1  UNK     0      -1.589  -1.776   1.722  0.00  0.00    +0.000 OA
ATOM      2  O2  UNK     0       0.200   2.159   0.165  0.00  0.00    +0.000 OA
ATOM      3  N4  UNK     0      -0.631   0.178   0.976  0.00  0.00    +0.000 N 
ATOM      4  N5  UNK     0      -1.724   1.392  -0.790  0.00  0.00    +0.000 N 
ATOM      5  N6  UNK     0      -3.741  -1.391  -0.189  0.00  0.00    +0.000 N 
ATOM      6  N7  UNK     0      -3.791   0.400  -1.575  0.00  0.00    +0.000 NA
ATOM      7  C11 UNK     0      -2.659  -0.628   0.039  0.00  0.00    +0.000 A 
ATOM      8  C12 UNK     0      -1.619  -0.782   0.945  0.00  0.00    +0.000 A 
ATOM      9  C13 UNK     0      -2.693   0.438  -0.792  0.00  0.00    +0.000 A 
ATOM     10  C14 UNK     0      -0.694   1.267   0.118  0.00  0.00    +0.000 A 
ATOM     11  C16 UNK     0      -4.409  -0.741  -1.173  0.00  0.00    +0.000 A 
ATOM     12  C17 UNK     0      -1.810   2.556  -1.682  0.00  0.00    +0.000 C 
ATOM     13  C18 UNK     0      -4.135  -2.633   0.468  0.00  0.00    +0.000 C 
ENDROOT
BRANCH   3  14
ATOM     14  C8  UNK     0       0.497   0.031   1.921  0.00  0.00    +0.000 C 
BRANCH  14  15
ATOM     15  C9  UNK     0       1.530  -0.995   1.418  0.00  0.00    +0.000 C 
BRANCH  15  16
ATOM     16  C10 UNK     0       2.231  -0.589   0.111  0.00  0.00    +0.000 C 
BRANCH  16  17
ATOM     17  C15 UNK     0       3.247   0.545   0.314  0.00  0.00    +0.000 C 
BRANCH  17  18
ATOM     18  C19 UNK     0       3.936   0.876  -0.984  0.00  0.00    +0.000 C 
ATOM     19  C20 UNK     0       5.396   0.599  -1.187  0.00  0.00    +0.000 C 
ATOM     20  O3  UNK     0       3.297   1.391  -1.889  0.00  0.00    +0.000 OA
ENDBRANCH  17  18
ENDBRANCH  16  17
ENDBRANCH  15  16
ENDBRANCH  14  15
ENDBRANCH   3  14
TORSDOF 5
