REMARK  Name = C:\Users\Maximilian\Desktop\Conformers\converted_pdb\conformers_pdb\Pentoxifylline_conf_23.pdb
REMARK  8 active torsions:
REMARK  status: ('A' for Active; 'I' for Inactive)
REMARK    1  A    between atoms: N4_3  and  C8_14
REMARK    2  A    between atoms: N5_4  and  C17_12
REMARK    3  A    between atoms: N6_5  and  C18_13
REMARK    4  A    between atoms: C8_14  and  C9_15
REMARK    5  A    between atoms: C9_15  and  C10_16
REMARK    6  A    between atoms: C10_16  and  C15_17
REMARK    7  A    between atoms: C15_17  and  C19_18
REMARK    8  A    between atoms: C19_18  and  C20_19
REMARK                            x       y       z     vdW  Elec       q    Type
REMARK                         _______ _______ _______ _____ _____    ______ ____
ROOT
ATOM      1  O1  UNK     0      -0.966   1.183  -1.691  0.00  0.00    +0.000 OA
ATOM      2  O2  UNK     0      -0.534  -3.210  -0.422  0.00  0.00    +0.000 OA
ATOM      3  N4  UNK     0      -0.698  -1.025  -1.099  0.00  0.00    +0.000 N 
ATOM      4  N5  UNK     0      -2.019  -1.897   0.710  0.00  0.00    +0.000 N 
ATOM      5  N6  UNK     0      -2.995   1.436   0.368  0.00  0.00    +0.000 N 
ATOM      6  N7  UNK     0      -3.566  -0.312   1.693  0.00  0.00    +0.000 NA
ATOM      7  C11 UNK     0      -2.260   0.365   0.026  0.00  0.00    +0.000 A 
ATOM      8  C12 UNK     0      -1.290   0.211  -0.956  0.00  0.00    +0.000 A 
ATOM      9  C13 UNK     0      -2.603  -0.674   0.820  0.00  0.00    +0.000 A 
ATOM     10  C14 UNK     0      -1.069  -2.075  -0.273  0.00  0.00    +0.000 A 
ATOM     11  C16 UNK     0      -3.779   0.994   1.382  0.00  0.00    +0.000 A 
ATOM     12  C17 UNK     0      -2.441  -3.013   1.568  0.00  0.00    +0.000 C 
ATOM     13  C18 UNK     0      -2.976   2.776  -0.208  0.00  0.00    +0.000 C 
ENDROOT
BRANCH   3  14
ATOM     14  C8  UNK     0       0.352  -1.231  -2.120  0.00  0.00    +0.000 C 
BRANCH  14  15
ATOM     15  C9  UNK     0       1.757  -1.180  -1.502  0.00  0.00    +0.000 C 
BRANCH  15  16
ATOM     16  C10 UNK     0       2.096   0.206  -0.937  0.00  0.00    +0.000 C 
BRANCH  16  17
ATOM     17  C15 UNK     0       3.534   0.249  -0.412  0.00  0.00    +0.000 C 
BRANCH  17  18
ATOM     18  C19 UNK     0       3.849   1.601   0.168  0.00  0.00    +0.000 C 
ATOM     19  C20 UNK     0       4.116   1.755   1.634  0.00  0.00    +0.000 C 
ATOM     20  O3  UNK     0       3.904   2.578  -0.565  0.00  0.00    +0.000 OA
ENDBRANCH  17  18
ENDBRANCH  16  17
ENDBRANCH  15  16
ENDBRANCH  14  15
ENDBRANCH   3  14
TORSDOF 5
