REMARK  Name = C:\Users\Maximilian\Desktop\Conformers\converted_pdb\conformers_pdb\Pentoxifylline_conf_2.pdb
REMARK  8 active torsions:
REMARK  status: ('A' for Active; 'I' for Inactive)
REMARK    1  A    between atoms: N4_3  and  C8_14
REMARK    2  A    between atoms: N5_4  and  C17_12
REMARK    3  A    between atoms: N6_5  and  C18_13
REMARK    4  A    between atoms: C8_14  and  C9_15
REMARK    5  A    between atoms: C9_15  and  C10_16
REMARK    6  A    between atoms: C10_16  and  C15_17
REMARK    7  A    between atoms: C15_17  and  C19_18
REMARK    8  A    between atoms: C19_18  and  C20_19
REMARK                            x       y       z     vdW  Elec       q    Type
REMARK                         _______ _______ _______ _____ _____    ______ ____
ROOT
ATOM      1  O1  UNK     0      -0.509  -0.400   1.702  0.00  0.00    +0.000 OA
ATOM      2  O2  UNK     0      -0.610  -1.894  -2.641  0.00  0.00    +0.000 OA
ATOM      3  N4  UNK     0      -0.487  -1.158  -0.472  0.00  0.00    +0.000 N 
ATOM      4  N5  UNK     0      -2.409  -0.731  -1.853  0.00  0.00    +0.000 N 
ATOM      5  N6  UNK     0      -3.170   0.664   1.254  0.00  0.00    +0.000 N 
ATOM      6  N7  UNK     0      -4.211   0.452  -0.747  0.00  0.00    +0.000 NA
ATOM      7  C11 UNK     0      -2.361   0.010   0.403  0.00  0.00    +0.000 A 
ATOM      8  C12 UNK     0      -1.089  -0.514   0.588  0.00  0.00    +0.000 A 
ATOM      9  C13 UNK     0      -2.986  -0.111  -0.789  0.00  0.00    +0.000 A 
ATOM     10  C14 UNK     0      -1.155  -1.276  -1.682  0.00  0.00    +0.000 A 
ATOM     11  C16 UNK     0      -4.286   0.918   0.527  0.00  0.00    +0.000 A 
ATOM     12  C17 UNK     0      -3.134  -0.879  -3.122  0.00  0.00    +0.000 C 
ATOM     13  C18 UNK     0      -2.928   1.021   2.648  0.00  0.00    +0.000 C 
ENDROOT
BRANCH   3  14
ATOM     14  C8  UNK     0       0.874  -1.718  -0.328  0.00  0.00    +0.000 C 
BRANCH  14  15
ATOM     15  C9  UNK     0       1.933  -0.816  -0.986  0.00  0.00    +0.000 C 
BRANCH  15  16
ATOM     16  C10 UNK     0       2.074   0.573  -0.334  0.00  0.00    +0.000 C 
BRANCH  16  17
ATOM     17  C15 UNK     0       2.701   0.557   1.071  0.00  0.00    +0.000 C 
BRANCH  17  18
ATOM     18  C19 UNK     0       4.156   0.173   1.041  0.00  0.00    +0.000 C 
ATOM     19  C20 UNK     0       5.220   1.229   1.060  0.00  0.00    +0.000 C 
ATOM     20  O3  UNK     0       4.475  -1.007   1.033  0.00  0.00    +0.000 OA
ENDBRANCH  17  18
ENDBRANCH  16  17
ENDBRANCH  15  16
ENDBRANCH  14  15
ENDBRANCH   3  14
TORSDOF 5
