REMARK  Name = C:\Users\Maximilian\Desktop\Conformers\converted_pdb\conformers_pdb\Pentoxifylline_conf_44.pdb
REMARK  8 active torsions:
REMARK  status: ('A' for Active; 'I' for Inactive)
REMARK    1  A    between atoms: N4_3  and  C8_14
REMARK    2  A    between atoms: N5_4  and  C17_12
REMARK    3  A    between atoms: N6_5  and  C18_13
REMARK    4  A    between atoms: C8_14  and  C9_15
REMARK    5  A    between atoms: C9_15  and  C10_16
REMARK    6  A    between atoms: C10_16  and  C15_17
REMARK    7  A    between atoms: C15_17  and  C19_18
REMARK    8  A    between atoms: C19_18  and  C20_19
REMARK                            x       y       z     vdW  Elec       q    Type
REMARK                         _______ _______ _______ _____ _____    ______ ____
ROOT
ATOM      1  O1  UNK     0      -0.655   1.656  -1.519  0.00  0.00    +0.000 OA
ATOM      2  O2  UNK     0      -0.436  -2.873  -0.788  0.00  0.00    +0.000 OA
ATOM      3  N4  UNK     0      -0.484  -0.614  -1.186  0.00  0.00    +0.000 N 
ATOM      4  N5  UNK     0      -2.153  -1.706   0.159  0.00  0.00    +0.000 N 
ATOM      5  N6  UNK     0      -3.084   1.656   0.071  0.00  0.00    +0.000 N 
ATOM      6  N7  UNK     0      -3.901  -0.248   0.989  0.00  0.00    +0.000 NA
ATOM      7  C11 UNK     0      -2.275   0.631  -0.246  0.00  0.00    +0.000 A 
ATOM      8  C12 UNK     0      -1.114   0.599  -1.006  0.00  0.00    +0.000 A 
ATOM      9  C13 UNK     0      -2.765  -0.501   0.306  0.00  0.00    +0.000 A 
ATOM     10  C14 UNK     0      -1.010  -1.762  -0.610  0.00  0.00    +0.000 A 
ATOM     11  C16 UNK     0      -4.063   1.090   0.820  0.00  0.00    +0.000 A 
ATOM     12  C17 UNK     0      -2.731  -2.923   0.745  0.00  0.00    +0.000 C 
ATOM     13  C18 UNK     0      -2.964   3.061  -0.302  0.00  0.00    +0.000 C 
ENDROOT
BRANCH   3  14
ATOM     14  C8  UNK     0       0.763  -0.675  -1.976  0.00  0.00    +0.000 C 
BRANCH  14  15
ATOM     15  C9  UNK     0       1.975  -0.214  -1.151  0.00  0.00    +0.000 C 
BRANCH  15  16
ATOM     16  C10 UNK     0       2.274  -1.160   0.023  0.00  0.00    +0.000 C 
BRANCH  16  17
ATOM     17  C15 UNK     0       3.548  -0.755   0.776  0.00  0.00    +0.000 C 
BRANCH  17  18
ATOM     18  C19 UNK     0       3.376   0.555   1.503  0.00  0.00    +0.000 C 
ATOM     19  C20 UNK     0       4.140   1.780   1.096  0.00  0.00    +0.000 C 
ATOM     20  O3  UNK     0       2.602   0.623   2.446  0.00  0.00    +0.000 OA
ENDBRANCH  17  18
ENDBRANCH  16  17
ENDBRANCH  15  16
ENDBRANCH  14  15
ENDBRANCH   3  14
TORSDOF 5
