REMARK  Name = C:\Users\Maximilian\Desktop\Conformers\converted_pdb\conformers_pdb\Pentoxifylline_conf_41.pdb
REMARK  8 active torsions:
REMARK  status: ('A' for Active; 'I' for Inactive)
REMARK    1  A    between atoms: N4_3  and  C8_14
REMARK    2  A    between atoms: N5_4  and  C17_12
REMARK    3  A    between atoms: N6_5  and  C18_13
REMARK    4  A    between atoms: C8_14  and  C9_15
REMARK    5  A    between atoms: C9_15  and  C10_16
REMARK    6  A    between atoms: C10_16  and  C15_17
REMARK    7  A    between atoms: C15_17  and  C19_18
REMARK    8  A    between atoms: C19_18  and  C20_19
REMARK                            x       y       z     vdW  Elec       q    Type
REMARK                         _______ _______ _______ _____ _____    ______ ____
ROOT
ATOM      1  O1  UNK     0      -1.460   2.262   0.241  0.00  0.00    +0.000 OA
ATOM      2  O2  UNK     0       0.032  -1.680   2.066  0.00  0.00    +0.000 OA
ATOM      3  N4  UNK     0      -0.654   0.319   1.172  0.00  0.00    +0.000 N 
ATOM      4  N5  UNK     0      -1.942  -1.696   0.923  0.00  0.00    +0.000 N 
ATOM      5  N6  UNK     0      -3.787   0.792  -0.684  0.00  0.00    +0.000 N 
ATOM      6  N7  UNK     0      -4.030  -1.423  -0.276  0.00  0.00    +0.000 NA
ATOM      7  C11 UNK     0      -2.721   0.351   0.004  0.00  0.00    +0.000 A 
ATOM      8  C12 UNK     0      -1.600   1.028   0.465  0.00  0.00    +0.000 A 
ATOM      9  C13 UNK     0      -2.871  -0.971   0.243  0.00  0.00    +0.000 A 
ATOM     10  C14 UNK     0      -0.832  -1.037   1.406  0.00  0.00    +0.000 A 
ATOM     11  C16 UNK     0      -4.565  -0.308  -0.838  0.00  0.00    +0.000 A 
ATOM     12  C17 UNK     0      -2.153  -3.125   1.193  0.00  0.00    +0.000 C 
ATOM     13  C18 UNK     0      -4.071   2.142  -1.159  0.00  0.00    +0.000 C 
ENDROOT
BRANCH   3  14
ATOM     14  C8  UNK     0       0.556   1.012   1.664  0.00  0.00    +0.000 C 
BRANCH  14  15
ATOM     15  C9  UNK     0       1.594   1.200   0.548  0.00  0.00    +0.000 C 
BRANCH  15  16
ATOM     16  C10 UNK     0       2.163  -0.138   0.049  0.00  0.00    +0.000 C 
BRANCH  16  17
ATOM     17  C15 UNK     0       3.206   0.042  -1.063  0.00  0.00    +0.000 C 
BRANCH  17  18
ATOM     18  C19 UNK     0       4.514   0.570  -0.536  0.00  0.00    +0.000 C 
ATOM     19  C20 UNK     0       5.669  -0.357  -0.308  0.00  0.00    +0.000 C 
ATOM     20  O3  UNK     0       4.647   1.766  -0.325  0.00  0.00    +0.000 OA
ENDBRANCH  17  18
ENDBRANCH  16  17
ENDBRANCH  15  16
ENDBRANCH  14  15
ENDBRANCH   3  14
TORSDOF 5
