REMARK  Name = C:\Users\Maximilian\Desktop\Conformers\converted_pdb\conformers_pdb\Pentoxifylline_conf_11.pdb
REMARK  8 active torsions:
REMARK  status: ('A' for Active; 'I' for Inactive)
REMARK    1  A    between atoms: N4_3  and  C8_14
REMARK    2  A    between atoms: N5_4  and  C17_12
REMARK    3  A    between atoms: N6_5  and  C18_13
REMARK    4  A    between atoms: C8_14  and  C9_15
REMARK    5  A    between atoms: C9_15  and  C10_16
REMARK    6  A    between atoms: C10_16  and  C15_17
REMARK    7  A    between atoms: C15_17  and  C19_18
REMARK    8  A    between atoms: C19_18  and  C20_19
REMARK                            x       y       z     vdW  Elec       q    Type
REMARK                         _______ _______ _______ _____ _____    ______ ____
ROOT
ATOM      1  O1  UNK     0      -1.133   1.958   0.650  0.00  0.00    +0.000 OA
ATOM      2  O2  UNK     0      -0.368  -2.553   0.278  0.00  0.00    +0.000 OA
ATOM      3  N4  UNK     0      -0.690  -0.295   0.520  0.00  0.00    +0.000 N 
ATOM      4  N5  UNK     0      -2.523  -1.809   0.153  0.00  0.00    +0.000 N 
ATOM      5  N6  UNK     0      -3.949   1.375   0.246  0.00  0.00    +0.000 N 
ATOM      6  N7  UNK     0      -4.691  -0.746  -0.047  0.00  0.00    +0.000 NA
ATOM      7  C11 UNK     0      -2.907   0.530   0.317  0.00  0.00    +0.000 A 
ATOM      8  C12 UNK     0      -1.554   0.778   0.506  0.00  0.00    +0.000 A 
ATOM      9  C13 UNK     0      -3.356  -0.733   0.145  0.00  0.00    +0.000 A 
ATOM     10  C14 UNK     0      -1.173  -1.580   0.318  0.00  0.00    +0.000 A 
ATOM     11  C16 UNK     0      -5.018   0.571   0.024  0.00  0.00    +0.000 A 
ATOM     12  C17 UNK     0      -3.040  -3.162  -0.088  0.00  0.00    +0.000 C 
ATOM     13  C18 UNK     0      -3.952   2.830   0.357  0.00  0.00    +0.000 C 
ENDROOT
BRANCH   3  14
ATOM     14  C8  UNK     0       0.759  -0.069   0.685  0.00  0.00    +0.000 C 
BRANCH  14  15
ATOM     15  C9  UNK     0       1.425   0.125  -0.685  0.00  0.00    +0.000 C 
BRANCH  15  16
ATOM     16  C10 UNK     0       2.911   0.503  -0.578  0.00  0.00    +0.000 C 
BRANCH  16  17
ATOM     17  C15 UNK     0       3.789  -0.678  -0.129  0.00  0.00    +0.000 C 
BRANCH  17  18
ATOM     18  C19 UNK     0       5.272  -0.380  -0.110  0.00  0.00    +0.000 C 
ATOM     19  C20 UNK     0       5.842   0.972  -0.443  0.00  0.00    +0.000 C 
ATOM     20  O3  UNK     0       6.041  -1.281   0.190  0.00  0.00    +0.000 OA
ENDBRANCH  17  18
ENDBRANCH  16  17
ENDBRANCH  15  16
ENDBRANCH  14  15
ENDBRANCH   3  14
TORSDOF 5
