REMARK  Name = C:\Users\Maximilian\Desktop\Conformers\converted_pdb\conformers_pdb\Pentoxifylline_conf_30.pdb
REMARK  8 active torsions:
REMARK  status: ('A' for Active; 'I' for Inactive)
REMARK    1  A    between atoms: N4_3  and  C8_14
REMARK    2  A    between atoms: N5_4  and  C17_12
REMARK    3  A    between atoms: N6_5  and  C18_13
REMARK    4  A    between atoms: C8_14  and  C9_15
REMARK    5  A    between atoms: C9_15  and  C10_16
REMARK    6  A    between atoms: C10_16  and  C15_17
REMARK    7  A    between atoms: C15_17  and  C19_18
REMARK    8  A    between atoms: C19_18  and  C20_19
REMARK                            x       y       z     vdW  Elec       q    Type
REMARK                         _______ _______ _______ _____ _____    ______ ____
ROOT
ATOM      1  O1  UNK     0      -0.912   0.374   1.664  0.00  0.00    +0.000 OA
ATOM      2  O2  UNK     0      -0.515   0.364  -2.910  0.00  0.00    +0.000 OA
ATOM      3  N4  UNK     0      -0.649   0.420  -0.621  0.00  0.00    +0.000 N 
ATOM      4  N5  UNK     0      -2.611   0.314  -2.007  0.00  0.00    +0.000 N 
ATOM      5  N6  UNK     0      -3.785   0.208   1.277  0.00  0.00    +0.000 N 
ATOM      6  N7  UNK     0      -4.702   0.159  -0.794  0.00  0.00    +0.000 NA
ATOM      7  C11 UNK     0      -2.807   0.288   0.361  0.00  0.00    +0.000 A 
ATOM      8  C12 UNK     0      -1.429   0.364   0.513  0.00  0.00    +0.000 A 
ATOM      9  C13 UNK     0      -3.360   0.261  -0.873  0.00  0.00    +0.000 A 
ATOM     10  C14 UNK     0      -1.240   0.368  -1.875  0.00  0.00    +0.000 A 
ATOM     11  C16 UNK     0      -4.924   0.130   0.546  0.00  0.00    +0.000 A 
ATOM     12  C17 UNK     0      -3.244   0.231  -3.330  0.00  0.00    +0.000 C 
ATOM     13  C18 UNK     0      -3.672   0.185   2.732  0.00  0.00    +0.000 C 
ENDROOT
BRANCH   3  14
ATOM     14  C8  UNK     0       0.821   0.470  -0.497  0.00  0.00    +0.000 C 
BRANCH  14  15
ATOM     15  C9  UNK     0       1.395  -0.953  -0.431  0.00  0.00    +0.000 C 
BRANCH  15  16
ATOM     16  C10 UNK     0       2.931  -0.975  -0.436  0.00  0.00    +0.000 C 
BRANCH  16  17
ATOM     17  C15 UNK     0       3.533  -0.492   0.891  0.00  0.00    +0.000 C 
BRANCH  17  18
ATOM     18  C19 UNK     0       5.031  -0.631   0.879  0.00  0.00    +0.000 C 
ATOM     19  C20 UNK     0       5.907   0.584   0.914  0.00  0.00    +0.000 C 
ATOM     20  O3  UNK     0       5.537  -1.743   0.861  0.00  0.00    +0.000 OA
ENDBRANCH  17  18
ENDBRANCH  16  17
ENDBRANCH  15  16
ENDBRANCH  14  15
ENDBRANCH   3  14
TORSDOF 5
