REMARK  Name = C:\Users\Maximilian\Desktop\Conformers\converted_pdb\conformers_pdb\Pomalidomide_conf_9.pdb
REMARK  6 active torsions:
REMARK  status: ('A' for Active; 'I' for Inactive)
REMARK    1  A    between atoms: C7_3  and  C8_7
REMARK    2  A    between atoms: C9_4  and  O3_13
REMARK    3  A    between atoms: C11_5  and  O5_15
REMARK    4  A    between atoms: C8_7  and  C10_8
REMARK    5  A    between atoms: C8_7  and  O2_11
REMARK    6  A    between atoms: C10_8  and  O4_9
REMARK                            x       y       z     vdW  Elec       q    Type
REMARK                         _______ _______ _______ _____ _____    ______ ____
ROOT
ATOM      1  O1  UNK     0      -0.680  -1.806  -0.635  0.00  0.00    +0.000 OA
ATOM      2  O6  UNK     0      -2.520  -2.756   0.446  0.00  0.00    +0.000 OA
ATOM      3  C7  UNK     0      -0.122  -0.494  -0.745  0.00  0.00    +0.000 C 
ATOM      4  C9  UNK     0      -1.101   0.354   0.040  0.00  0.00    +0.000 C 
ATOM      5  C11 UNK     0      -2.063  -0.400   0.563  0.00  0.00    +0.000 C 
ATOM      6  C12 UNK     0      -1.815  -1.756   0.152  0.00  0.00    +0.000 C 
ENDROOT
BRANCH   4   7
ATOM      7  O3  UNK     0      -1.024   1.742   0.144  0.00  0.00    +0.000 OA
ATOM      8  H18 UNK     0      -1.704   2.287   0.658  0.00  0.00    +0.000 HD
ENDBRANCH   4   7
BRANCH   5   9
ATOM      9  O5  UNK     0      -3.135   0.024   1.346  0.00  0.00    +0.000 OA
ATOM     10  H20 UNK     0      -3.263   0.992   1.609  0.00  0.00    +0.000 HD
ENDBRANCH   5   9
BRANCH   3  11
ATOM     11  C8  UNK     0       1.308  -0.491  -0.154  0.00  0.00    +0.000 C 
BRANCH  11  12
ATOM     12  O2  UNK     0       2.049  -1.553  -0.703  0.00  0.00    +0.000 OA
ATOM     13  H17 UNK     0       2.113  -1.398  -1.682  0.00  0.00    +0.000 HD
ENDBRANCH  11  12
BRANCH  11  14
ATOM     14  C10 UNK     0       2.060   0.836  -0.387  0.00  0.00    +0.000 C 
BRANCH  14  15
ATOM     15  O4  UNK     0       1.660   1.816   0.532  0.00  0.00    +0.000 OA
ATOM     16  H19 UNK     0       2.082   1.583   1.400  0.00  0.00    +0.000 HD
ENDBRANCH  14  15
ENDBRANCH  11  14
ENDBRANCH   3  11
TORSDOF 6
