REMARK  Name = C:\Users\Maximilian\Desktop\Conformers\converted_pdb\conformers_pdb\Pomalidomide_conf_8.pdb
REMARK  6 active torsions:
REMARK  status: ('A' for Active; 'I' for Inactive)
REMARK    1  A    between atoms: C7_3  and  C8_7
REMARK    2  A    between atoms: C9_4  and  O3_13
REMARK    3  A    between atoms: C11_5  and  O5_15
REMARK    4  A    between atoms: C8_7  and  C10_8
REMARK    5  A    between atoms: C8_7  and  O2_11
REMARK    6  A    between atoms: C10_8  and  O4_9
REMARK                            x       y       z     vdW  Elec       q    Type
REMARK                         _______ _______ _______ _____ _____    ______ ____
ROOT
ATOM      1  O1  UNK     0       1.353  -1.393  -0.017  0.00  0.00    +0.000 OA
ATOM      2  O6  UNK     0       3.491  -1.027  -0.887  0.00  0.00    +0.000 OA
ATOM      3  C7  UNK     0       0.266  -0.567   0.410  0.00  0.00    +0.000 C 
ATOM      4  C9  UNK     0       0.807   0.831   0.206  0.00  0.00    +0.000 C 
ATOM      5  C11 UNK     0       2.033   0.793  -0.294  0.00  0.00    +0.000 C 
ATOM      6  C12 UNK     0       2.396  -0.592  -0.444  0.00  0.00    +0.000 C 
ENDROOT
BRANCH   4   7
ATOM      7  O3  UNK     0       0.128   2.002   0.535  0.00  0.00    +0.000 OA
ATOM      8  H18 UNK     0       0.544   2.914   0.387  0.00  0.00    +0.000 HD
ENDBRANCH   4   7
BRANCH   5   9
ATOM      9  O5  UNK     0       2.820   1.899  -0.598  0.00  0.00    +0.000 OA
ATOM     10  H20 UNK     0       3.754   1.782  -0.974  0.00  0.00    +0.000 HD
ENDBRANCH   5   9
BRANCH   3  11
ATOM     11  C8  UNK     0      -0.983  -0.862  -0.454  0.00  0.00    +0.000 C 
BRANCH  11  12
ATOM     12  O2  UNK     0      -1.247  -2.243  -0.479  0.00  0.00    +0.000 OA
ATOM     13  H17 UNK     0      -1.391  -2.540   0.457  0.00  0.00    +0.000 HD
ENDBRANCH  11  12
BRANCH  11  14
ATOM     14  C10 UNK     0      -2.237  -0.095   0.005  0.00  0.00    +0.000 C 
BRANCH  14  15
ATOM     15  O4  UNK     0      -2.515  -0.359   1.352  0.00  0.00    +0.000 OA
ATOM     16  H19 UNK     0      -3.327   0.167   1.574  0.00  0.00    +0.000 HD
ENDBRANCH  14  15
ENDBRANCH  11  14
ENDBRANCH   3  11
TORSDOF 6
