REMARK  Name = C:\Users\Maximilian\Desktop\Conformers\converted_pdb\conformers_pdb\Pomalidomide_conf_5.pdb
REMARK  6 active torsions:
REMARK  status: ('A' for Active; 'I' for Inactive)
REMARK    1  A    between atoms: C7_3  and  C8_7
REMARK    2  A    between atoms: C9_4  and  O3_13
REMARK    3  A    between atoms: C11_5  and  O5_15
REMARK    4  A    between atoms: C8_7  and  C10_8
REMARK    5  A    between atoms: C8_7  and  O2_11
REMARK    6  A    between atoms: C10_8  and  O4_9
REMARK                            x       y       z     vdW  Elec       q    Type
REMARK                         _______ _______ _______ _____ _____    ______ ____
ROOT
ATOM      1  O1  UNK     0       0.508   1.623  -0.974  0.00  0.00    +0.000 OA
ATOM      2  O6  UNK     0       1.751   3.019   0.430  0.00  0.00    +0.000 OA
ATOM      3  C7  UNK     0       0.321   0.211  -1.103  0.00  0.00    +0.000 C 
ATOM      4  C9  UNK     0       1.253  -0.352  -0.048  0.00  0.00    +0.000 C 
ATOM      5  C11 UNK     0       1.846   0.625   0.621  0.00  0.00    +0.000 C 
ATOM      6  C12 UNK     0       1.396   1.871   0.059  0.00  0.00    +0.000 C 
ENDROOT
BRANCH   4   7
ATOM      7  O3  UNK     0       1.516  -1.702   0.164  0.00  0.00    +0.000 OA
ATOM      8  H18 UNK     0       1.129  -2.413  -0.444  0.00  0.00    +0.000 HD
ENDBRANCH   4   7
BRANCH   5   9
ATOM      9  O5  UNK     0       2.763   0.476   1.657  0.00  0.00    +0.000 OA
ATOM     10  H20 UNK     0       3.035  -0.441   1.990  0.00  0.00    +0.000 HD
ENDBRANCH   5   9
BRANCH   3  11
ATOM     11  C8  UNK     0      -1.169  -0.147  -0.893  0.00  0.00    +0.000 C 
BRANCH  11  12
ATOM     12  O2  UNK     0      -1.395  -1.511  -1.152  0.00  0.00    +0.000 OA
ATOM     13  H17 UNK     0      -1.140  -2.025  -0.342  0.00  0.00    +0.000 HD
ENDBRANCH  11  12
BRANCH  11  14
ATOM     14  C10 UNK     0      -1.711   0.269   0.493  0.00  0.00    +0.000 C 
BRANCH  14  15
ATOM     15  O4  UNK     0      -3.091   0.032   0.569  0.00  0.00    +0.000 OA
ATOM     16  H19 UNK     0      -3.205  -0.931   0.779  0.00  0.00    +0.000 HD
ENDBRANCH  14  15
ENDBRANCH  11  14
ENDBRANCH   3  11
TORSDOF 6
