REMARK  Name = C:\Users\Maximilian\Desktop\Conformers\converted_pdb\conformers_pdb\Pomalidomide_conf_6.pdb
REMARK  6 active torsions:
REMARK  status: ('A' for Active; 'I' for Inactive)
REMARK    1  A    between atoms: C7_3  and  C8_7
REMARK    2  A    between atoms: C9_4  and  O3_13
REMARK    3  A    between atoms: C11_5  and  O5_15
REMARK    4  A    between atoms: C8_7  and  C10_8
REMARK    5  A    between atoms: C8_7  and  O2_11
REMARK    6  A    between atoms: C10_8  and  O4_9
REMARK                            x       y       z     vdW  Elec       q    Type
REMARK                         _______ _______ _______ _____ _____    ______ ____
ROOT
ATOM      1  O1  UNK     0      -0.048   1.178  -0.696  0.00  0.00    +0.000 OA
ATOM      2  O6  UNK     0       1.296   3.043  -0.275  0.00  0.00    +0.000 OA
ATOM      3  C7  UNK     0       0.102  -0.239  -0.564  0.00  0.00    +0.000 C 
ATOM      4  C9  UNK     0       1.507  -0.381  -0.024  0.00  0.00    +0.000 C 
ATOM      5  C11 UNK     0       2.073   0.802   0.135  0.00  0.00    +0.000 C 
ATOM      6  C12 UNK     0       1.118   1.798  -0.281  0.00  0.00    +0.000 C 
ENDROOT
BRANCH   4   7
ATOM      7  O3  UNK     0       2.142  -1.587   0.256  0.00  0.00    +0.000 OA
ATOM      8  H18 UNK     0       1.673  -2.470   0.093  0.00  0.00    +0.000 HD
ENDBRANCH   4   7
BRANCH   5   9
ATOM      9  O5  UNK     0       3.360   1.026   0.611  0.00  0.00    +0.000 OA
ATOM     10  H20 UNK     0       3.722   1.968   0.701  0.00  0.00    +0.000 HD
ENDBRANCH   5   9
BRANCH   3  11
ATOM     11  C8  UNK     0      -0.949  -0.834   0.399  0.00  0.00    +0.000 C 
BRANCH  11  12
ATOM     12  O2  UNK     0      -0.904  -0.220   1.665  0.00  0.00    +0.000 OA
ATOM     13  H17 UNK     0      -1.155   0.733   1.552  0.00  0.00    +0.000 HD
ENDBRANCH  11  12
BRANCH  11  14
ATOM     14  C10 UNK     0      -2.374  -0.798  -0.185  0.00  0.00    +0.000 C 
BRANCH  14  15
ATOM     15  O4  UNK     0      -2.818   0.520  -0.374  0.00  0.00    +0.000 OA
ATOM     16  H19 UNK     0      -2.611   0.764  -1.313  0.00  0.00    +0.000 HD
ENDBRANCH  14  15
ENDBRANCH  11  14
ENDBRANCH   3  11
TORSDOF 6
