REMARK  Name = C:\Users\Maximilian\Desktop\Conformers\converted_pdb\conformers_pdb\Pomalidomide_conf_7.pdb
REMARK  6 active torsions:
REMARK  status: ('A' for Active; 'I' for Inactive)
REMARK    1  A    between atoms: C7_3  and  C8_7
REMARK    2  A    between atoms: C9_4  and  O3_13
REMARK    3  A    between atoms: C11_5  and  O5_15
REMARK    4  A    between atoms: C8_7  and  C10_8
REMARK    5  A    between atoms: C8_7  and  O2_11
REMARK    6  A    between atoms: C10_8  and  O4_9
REMARK                            x       y       z     vdW  Elec       q    Type
REMARK                         _______ _______ _______ _____ _____    ______ ____
ROOT
ATOM      1  O1  UNK     0      -0.737  -0.983  -1.387  0.00  0.00    +0.000 OA
ATOM      2  O6  UNK     0      -2.586  -2.108  -0.504  0.00  0.00    +0.000 OA
ATOM      3  C7  UNK     0      -0.071   0.252  -1.111  0.00  0.00    +0.000 C 
ATOM      4  C9  UNK     0      -0.864   0.823   0.041  0.00  0.00    +0.000 C 
ATOM      5  C11 UNK     0      -1.860   0.015   0.369  0.00  0.00    +0.000 C 
ATOM      6  C12 UNK     0      -1.802  -1.124  -0.513  0.00  0.00    +0.000 C 
ENDROOT
BRANCH   4   7
ATOM      7  O3  UNK     0      -0.593   2.040   0.661  0.00  0.00    +0.000 OA
ATOM      8  H18 UNK     0      -1.159   2.379   1.430  0.00  0.00    +0.000 HD
ENDBRANCH   4   7
BRANCH   5   9
ATOM      9  O5  UNK     0      -2.786   0.237   1.383  0.00  0.00    +0.000 OA
ATOM     10  H20 UNK     0      -3.520  -0.435   1.570  0.00  0.00    +0.000 HD
ENDBRANCH   5   9
BRANCH   3  11
ATOM     11  C8  UNK     0       1.424   0.020  -0.790  0.00  0.00    +0.000 C 
BRANCH  11  12
ATOM     12  O2  UNK     0       2.049   1.235  -0.462  0.00  0.00    +0.000 OA
ATOM     13  H17 UNK     0       2.124   1.756  -1.304  0.00  0.00    +0.000 HD
ENDBRANCH  11  12
BRANCH  11  14
ATOM     14  C10 UNK     0       1.667  -1.005   0.335  0.00  0.00    +0.000 C 
BRANCH  14  15
ATOM     15  O4  UNK     0       1.197  -0.538   1.571  0.00  0.00    +0.000 OA
ATOM     16  H19 UNK     0       1.878   0.097   1.916  0.00  0.00    +0.000 HD
ENDBRANCH  14  15
ENDBRANCH  11  14
ENDBRANCH   3  11
TORSDOF 6
