REMARK  Name = C:\Users\Maximilian\Desktop\Conformers\converted_pdb\conformers_pdb\Pomalidomide_conf_2.pdb
REMARK  6 active torsions:
REMARK  status: ('A' for Active; 'I' for Inactive)
REMARK    1  A    between atoms: C7_3  and  C8_7
REMARK    2  A    between atoms: C9_4  and  O3_13
REMARK    3  A    between atoms: C11_5  and  O5_15
REMARK    4  A    between atoms: C8_7  and  C10_8
REMARK    5  A    between atoms: C8_7  and  O2_11
REMARK    6  A    between atoms: C10_8  and  O4_9
REMARK                            x       y       z     vdW  Elec       q    Type
REMARK                         _______ _______ _______ _____ _____    ______ ____
ROOT
ATOM      1  O1  UNK     0       0.229  -1.049  -1.254  0.00  0.00    +0.000 OA
ATOM      2  O6  UNK     0       1.984  -1.064  -2.797  0.00  0.00    +0.000 OA
ATOM      3  C7  UNK     0       0.064  -0.612   0.099  0.00  0.00    +0.000 C 
ATOM      4  C9  UNK     0       1.430  -0.067   0.448  0.00  0.00    +0.000 C 
ATOM      5  C11 UNK     0       2.258  -0.181  -0.578  0.00  0.00    +0.000 C 
ATOM      6  C12 UNK     0       1.528  -0.794  -1.656  0.00  0.00    +0.000 C 
ENDROOT
BRANCH   4   7
ATOM      7  O3  UNK     0       1.788   0.466   1.682  0.00  0.00    +0.000 OA
ATOM      8  H18 UNK     0       1.119   0.510   2.441  0.00  0.00    +0.000 HD
ENDBRANCH   4   7
BRANCH   5   9
ATOM      9  O5  UNK     0       3.593   0.215  -0.609  0.00  0.00    +0.000 OA
ATOM     10  H20 UNK     0       4.034   0.640   0.198  0.00  0.00    +0.000 HD
ENDBRANCH   5   9
BRANCH   3  11
ATOM     11  C8  UNK     0      -1.030   0.468   0.199  0.00  0.00    +0.000 C 
BRANCH  11  12
ATOM     12  O2  UNK     0      -0.727   1.530  -0.670  0.00  0.00    +0.000 OA
ATOM     13  H17 UNK     0      -1.254   2.313  -0.362  0.00  0.00    +0.000 HD
ENDBRANCH  11  12
BRANCH  11  14
ATOM     14  C10 UNK     0      -2.414  -0.106  -0.154  0.00  0.00    +0.000 C 
BRANCH  14  15
ATOM     15  O4  UNK     0      -2.775  -1.129   0.735  0.00  0.00    +0.000 OA
ATOM     16  H19 UNK     0      -3.024  -0.688   1.589  0.00  0.00    +0.000 HD
ENDBRANCH  14  15
ENDBRANCH  11  14
ENDBRANCH   3  11
TORSDOF 6
