REMARK  Name = C:\Users\Maximilian\Desktop\Conformers\converted_pdb\conformers_pdb\Pomalidomide_conf_3.pdb
REMARK  6 active torsions:
REMARK  status: ('A' for Active; 'I' for Inactive)
REMARK    1  A    between atoms: C7_3  and  C8_7
REMARK    2  A    between atoms: C9_4  and  O3_13
REMARK    3  A    between atoms: C11_5  and  O5_15
REMARK    4  A    between atoms: C8_7  and  C10_8
REMARK    5  A    between atoms: C8_7  and  O2_11
REMARK    6  A    between atoms: C10_8  and  O4_9
REMARK                            x       y       z     vdW  Elec       q    Type
REMARK                         _______ _______ _______ _____ _____    ______ ____
ROOT
ATOM      1  O1  UNK     0      -0.706  -1.415  -0.268  0.00  0.00    +0.000 OA
ATOM      2  O6  UNK     0      -2.733  -2.030   0.720  0.00  0.00    +0.000 OA
ATOM      3  C7  UNK     0      -0.122  -0.189  -0.718  0.00  0.00    +0.000 C 
ATOM      4  C9  UNK     0      -1.186   0.833  -0.400  0.00  0.00    +0.000 C 
ATOM      5  C11 UNK     0      -2.242   0.257   0.153  0.00  0.00    +0.000 C 
ATOM      6  C12 UNK     0      -1.964  -1.154   0.246  0.00  0.00    +0.000 C 
ENDROOT
BRANCH   4   7
ATOM      7  O3  UNK     0      -1.073   2.196  -0.666  0.00  0.00    +0.000 OA
ATOM      8  H18 UNK     0      -1.819   2.842  -0.435  0.00  0.00    +0.000 HD
ENDBRANCH   4   7
BRANCH   5   9
ATOM      9  O5  UNK     0      -3.400   0.908   0.565  0.00  0.00    +0.000 OA
ATOM     10  H20 UNK     0      -4.165   0.390   0.981  0.00  0.00    +0.000 HD
ENDBRANCH   5   9
BRANCH   3  11
ATOM     11  C8  UNK     0       1.193   0.103   0.025  0.00  0.00    +0.000 C 
BRANCH  11  12
ATOM     12  O2  UNK     0       0.969   0.083   1.412  0.00  0.00    +0.000 OA
ATOM     13  H17 UNK     0       1.689   0.625   1.829  0.00  0.00    +0.000 HD
ENDBRANCH  11  12
BRANCH  11  14
ATOM     14  C10 UNK     0       2.266  -0.934  -0.346  0.00  0.00    +0.000 C 
BRANCH  14  15
ATOM     15  O4  UNK     0       3.484  -0.628   0.277  0.00  0.00    +0.000 OA
ATOM     16  H19 UNK     0       3.873   0.138  -0.220  0.00  0.00    +0.000 HD
ENDBRANCH  14  15
ENDBRANCH  11  14
ENDBRANCH   3  11
TORSDOF 6
