REMARK  Name = C:\Users\Maximilian\Desktop\Conformers\converted_pdb\conformers_pdb\Pomalidomide_conf_4.pdb
REMARK  6 active torsions:
REMARK  status: ('A' for Active; 'I' for Inactive)
REMARK    1  A    between atoms: C7_3  and  C8_7
REMARK    2  A    between atoms: C9_4  and  O3_13
REMARK    3  A    between atoms: C11_5  and  O5_15
REMARK    4  A    between atoms: C8_7  and  C10_8
REMARK    5  A    between atoms: C8_7  and  O2_11
REMARK    6  A    between atoms: C10_8  and  O4_9
REMARK                            x       y       z     vdW  Elec       q    Type
REMARK                         _______ _______ _______ _____ _____    ______ ____
ROOT
ATOM      1  O1  UNK     0       0.619  -1.528   0.750  0.00  0.00    +0.000 OA
ATOM      2  O6  UNK     0       2.192  -2.304  -0.795  0.00  0.00    +0.000 OA
ATOM      3  C7  UNK     0       0.158  -0.243   1.178  0.00  0.00    +0.000 C 
ATOM      4  C9  UNK     0       0.978   0.712   0.338  0.00  0.00    +0.000 C 
ATOM      5  C11 UNK     0       1.797   0.047  -0.461  0.00  0.00    +0.000 C 
ATOM      6  C12 UNK     0       1.592  -1.359  -0.220  0.00  0.00    +0.000 C 
ENDROOT
BRANCH   4   7
ATOM      7  O3  UNK     0       0.905   2.101   0.417  0.00  0.00    +0.000 OA
ATOM      8  H18 UNK     0       1.485   2.693  -0.165  0.00  0.00    +0.000 HD
ENDBRANCH   4   7
BRANCH   5   9
ATOM      9  O5  UNK     0       2.693   0.615  -1.361  0.00  0.00    +0.000 OA
ATOM     10  H20 UNK     0       3.288   0.032  -1.937  0.00  0.00    +0.000 HD
ENDBRANCH   5   9
BRANCH   3  11
ATOM     11  C8  UNK     0      -1.372  -0.115   0.980  0.00  0.00    +0.000 C 
BRANCH  11  12
ATOM     12  O2  UNK     0      -1.850   1.056   1.594  0.00  0.00    +0.000 OA
ATOM     13  H17 UNK     0      -1.567   1.829   1.041  0.00  0.00    +0.000 HD
ENDBRANCH  11  12
BRANCH  11  14
ATOM     14  C10 UNK     0      -1.830  -0.186  -0.492  0.00  0.00    +0.000 C 
BRANCH  14  15
ATOM     15  O4  UNK     0      -1.554  -1.451  -1.027  0.00  0.00    +0.000 OA
ATOM     16  H19 UNK     0      -1.851  -1.421  -1.973  0.00  0.00    +0.000 HD
ENDBRANCH  14  15
ENDBRANCH  11  14
ENDBRANCH   3  11
TORSDOF 6
