REMARK  Name = C:\Users\Maximilian\Desktop\Conformers\converted_pdb\conformers_pdb\Pomalidomide_conf_1.pdb
REMARK  6 active torsions:
REMARK  status: ('A' for Active; 'I' for Inactive)
REMARK    1  A    between atoms: C7_3  and  C8_7
REMARK    2  A    between atoms: C9_4  and  O3_13
REMARK    3  A    between atoms: C11_5  and  O5_15
REMARK    4  A    between atoms: C8_7  and  C10_8
REMARK    5  A    between atoms: C8_7  and  O2_11
REMARK    6  A    between atoms: C10_8  and  O4_9
REMARK                            x       y       z     vdW  Elec       q    Type
REMARK                         _______ _______ _______ _____ _____    ______ ____
ROOT
ATOM      1  O1  UNK     0      -0.882  -1.808  -0.087  0.00  0.00    +0.000 OA
ATOM      2  O6  UNK     0      -2.938  -2.383   0.860  0.00  0.00    +0.000 OA
ATOM      3  C7  UNK     0      -0.184  -0.589  -0.357  0.00  0.00    +0.000 C 
ATOM      4  C9  UNK     0      -1.156   0.469   0.121  0.00  0.00    +0.000 C 
ATOM      5  C11 UNK     0      -2.254  -0.091   0.620  0.00  0.00    +0.000 C 
ATOM      6  C12 UNK     0      -2.100  -1.516   0.498  0.00  0.00    +0.000 C 
ENDROOT
BRANCH   4   7
ATOM      7  O3  UNK     0      -0.934   1.841   0.011  0.00  0.00    +0.000 OA
ATOM      8  H18 UNK     0      -1.607   2.527   0.327  0.00  0.00    +0.000 HD
ENDBRANCH   4   7
BRANCH   5   9
ATOM      9  O5  UNK     0      -3.365   0.558   1.153  0.00  0.00    +0.000 OA
ATOM     10  H20 UNK     0      -3.423   1.566   1.217  0.00  0.00    +0.000 HD
ENDBRANCH   5   9
BRANCH   3  11
ATOM     11  C8  UNK     0       1.154  -0.572   0.417  0.00  0.00    +0.000 C 
BRANCH  11  12
ATOM     12  O2  UNK     0       1.843  -1.782   0.218  0.00  0.00    +0.000 OA
ATOM     13  H17 UNK     0       2.028  -1.864  -0.755  0.00  0.00    +0.000 HD
ENDBRANCH  11  12
BRANCH  11  14
ATOM     14  C10 UNK     0       2.047   0.614   0.015  0.00  0.00    +0.000 C 
BRANCH  14  15
ATOM     15  O4  UNK     0       3.271   0.532   0.692  0.00  0.00    +0.000 OA
ATOM     16  H19 UNK     0       3.809   1.308   0.384  0.00  0.00    +0.000 HD
ENDBRANCH  14  15
ENDBRANCH  11  14
ENDBRANCH   3  11
TORSDOF 6
