REMARK  Name = C:\Users\Maximilian\Desktop\Conformers\converted_pdb\conformers_pdb\Quercetin_conf_2.pdb
REMARK  6 active torsions:
REMARK  status: ('A' for Active; 'I' for Inactive)
REMARK    1  A    between atoms: C10_5  and  C11_12
REMARK    2  A    between atoms: C12_6  and  O2_22
REMARK    3  A    between atoms: C14_8  and  O3_26
REMARK    4  A    between atoms: C16_10  and  O5_24
REMARK    5  A    between atoms: C20_14  and  O6_18
REMARK    6  A    between atoms: C22_15  and  O7_20
REMARK                            x       y       z     vdW  Elec       q    Type
REMARK                         _______ _______ _______ _____ _____    ______ ____
ROOT
ATOM      1  O1  UNK     0       0.524  -0.770   0.287  0.00  0.00    +0.000 OA
ATOM      2  O4  UNK     0       1.898   2.495  -1.576  0.00  0.00    +0.000 OA
ATOM      3  C8  UNK     0       2.395   0.576  -0.345  0.00  0.00    +0.000 A 
ATOM      4  C9  UNK     0       1.839  -0.594   0.236  0.00  0.00    +0.000 A 
ATOM      5  C10 UNK     0      -0.351   0.101  -0.202  0.00  0.00    +0.000 A 
ATOM      6  C12 UNK     0       0.109   1.255  -0.860  0.00  0.00    +0.000 A 
ATOM      7  C13 UNK     0       1.491   1.489  -0.939  0.00  0.00    +0.000 A 
ATOM      8  C14 UNK     0       3.814   0.734  -0.329  0.00  0.00    +0.000 A 
ATOM      9  C15 UNK     0       2.666  -1.589   0.761  0.00  0.00    +0.000 A 
ATOM     10  C16 UNK     0       4.052  -1.452   0.718  0.00  0.00    +0.000 A 
ATOM     11  C18 UNK     0       4.618  -0.297   0.172  0.00  0.00    +0.000 A 
ENDROOT
BRANCH   5  12
ATOM     12  C11 UNK     0      -1.793  -0.201  -0.056  0.00  0.00    +0.000 A 
ATOM     13  C17 UNK     0      -2.717   0.795   0.310  0.00  0.00    +0.000 A 
ATOM     14  C20 UNK     0      -4.076   0.484   0.466  0.00  0.00    +0.000 A 
ATOM     15  C22 UNK     0      -4.518  -0.834   0.266  0.00  0.00    +0.000 A 
ATOM     16  C21 UNK     0      -3.598  -1.829  -0.078  0.00  0.00    +0.000 A 
ATOM     17  C19 UNK     0      -2.244  -1.518  -0.231  0.00  0.00    +0.000 A 
BRANCH  14  18
ATOM     18  O6  UNK     0      -4.985   1.479   0.823  0.00  0.00    +0.000 OA
ATOM     19  H31 UNK     0      -4.692   2.437   0.974  0.00  0.00    +0.000 HD
ENDBRANCH  14  18
BRANCH  15  20
ATOM     20  O7  UNK     0      -5.862  -1.174   0.410  0.00  0.00    +0.000 OA
ATOM     21  H32 UNK     0      -6.567  -0.490   0.659  0.00  0.00    +0.000 HD
ENDBRANCH  15  20
ENDBRANCH   5  12
BRANCH   6  22
ATOM     22  O2  UNK     0      -0.800   2.132  -1.458  0.00  0.00    +0.000 OA
ATOM     23  H28 UNK     0      -0.507   2.969  -1.947  0.00  0.00    +0.000 HD
ENDBRANCH   6  22
BRANCH  10  24
ATOM     24  O5  UNK     0       4.859  -2.466   1.229  0.00  0.00    +0.000 OA
ATOM     25  H30 UNK     0       5.870  -2.396   1.215  0.00  0.00    +0.000 HD
ENDBRANCH  10  24
BRANCH   8  26
ATOM     26  O3  UNK     0       4.475   1.886  -0.765  0.00  0.00    +0.000 OA
ATOM     27  H29 UNK     0       4.042   2.790  -0.875  0.00  0.00    +0.000 HD
ENDBRANCH   8  26
TORSDOF 6
