REMARK  Name = C:\Users\Maximilian\Desktop\Conformers\converted_pdb\conformers_pdb\Quercetin_conf_1.pdb
REMARK  6 active torsions:
REMARK  status: ('A' for Active; 'I' for Inactive)
REMARK    1  A    between atoms: C10_5  and  C11_12
REMARK    2  A    between atoms: C12_6  and  O2_22
REMARK    3  A    between atoms: C14_8  and  O3_26
REMARK    4  A    between atoms: C16_10  and  O5_24
REMARK    5  A    between atoms: C20_14  and  O6_18
REMARK    6  A    between atoms: C22_15  and  O7_20
REMARK                            x       y       z     vdW  Elec       q    Type
REMARK                         _______ _______ _______ _____ _____    ______ ____
ROOT
ATOM      1  O1  UNK     0       0.509   0.635   0.114  0.00  0.00    +0.000 OA
ATOM      2  O4  UNK     0       2.195  -2.897   0.955  0.00  0.00    +0.000 OA
ATOM      3  C8  UNK     0       2.502  -0.668   0.333  0.00  0.00    +0.000 A 
ATOM      4  C9  UNK     0       1.835   0.563   0.095  0.00  0.00    +0.000 A 
ATOM      5  C10 UNK     0      -0.277  -0.404   0.371  0.00  0.00    +0.000 A 
ATOM      6  C12 UNK     0       0.293  -1.661   0.636  0.00  0.00    +0.000 A 
ATOM      7  C13 UNK     0       1.691  -1.786   0.644  0.00  0.00    +0.000 A 
ATOM      8  C14 UNK     0       3.928  -0.691   0.267  0.00  0.00    +0.000 A 
ATOM      9  C15 UNK     0       2.562   1.730  -0.153  0.00  0.00    +0.000 A 
ATOM     10  C16 UNK     0       3.957   1.705  -0.160  0.00  0.00    +0.000 A 
ATOM     11  C18 UNK     0       4.629   0.503   0.054  0.00  0.00    +0.000 A 
ENDROOT
BRANCH   5  12
ATOM     12  C11 UNK     0      -1.742  -0.189   0.359  0.00  0.00    +0.000 A 
ATOM     13  C17 UNK     0      -2.313   0.622  -0.634  0.00  0.00    +0.000 A 
ATOM     14  C20 UNK     0      -3.692   0.865  -0.662  0.00  0.00    +0.000 A 
ATOM     15  C22 UNK     0      -4.520   0.295   0.334  0.00  0.00    +0.000 A 
ATOM     16  C21 UNK     0      -3.945  -0.495   1.335  0.00  0.00    +0.000 A 
ATOM     17  C19 UNK     0      -2.569  -0.732   1.355  0.00  0.00    +0.000 A 
BRANCH  14  18
ATOM     18  O6  UNK     0      -4.191   1.672  -1.687  0.00  0.00    +0.000 OA
ATOM     19  H31 UNK     0      -5.167   1.911  -1.793  0.00  0.00    +0.000 HD
ENDBRANCH  14  18
BRANCH  15  20
ATOM     20  O7  UNK     0      -5.902   0.490   0.369  0.00  0.00    +0.000 OA
ATOM     21  H32 UNK     0      -6.413   1.038  -0.308  0.00  0.00    +0.000 HD
ENDBRANCH  15  20
ENDBRANCH   5  12
BRANCH   6  22
ATOM     22  O2  UNK     0      -0.525  -2.770   0.866  0.00  0.00    +0.000 OA
ATOM     23  H28 UNK     0      -0.151  -3.694   1.049  0.00  0.00    +0.000 HD
ENDBRANCH   6  22
BRANCH  10  24
ATOM     24  O5  UNK     0       4.686   2.870  -0.386  0.00  0.00    +0.000 OA
ATOM     25  H30 UNK     0       4.228   3.760  -0.548  0.00  0.00    +0.000 HD
ENDBRANCH  10  24
BRANCH   8  26
ATOM     26  O3  UNK     0       4.699  -1.852   0.379  0.00  0.00    +0.000 OA
ATOM     27  H29 UNK     0       4.350  -2.791   0.258  0.00  0.00    +0.000 HD
ENDBRANCH   8  26
TORSDOF 6
