REMARK  Name = C:\Users\Maximilian\Desktop\Conformers\converted_pdb\conformers_pdb\Resatorvid_conf_33.pdb
REMARK  7 active torsions:
REMARK  status: ('A' for Active; 'I' for Inactive)
REMARK    1  A    between atoms: S_1  and  N_4
REMARK    2  A    between atoms: S_1  and  C_14
REMARK    3  A    between atoms: N_4  and  C_6
REMARK    4  A    between atoms: C_19  and  C_20
REMARK    5  A    between atoms: C_20  and  O_22
REMARK    6  A    between atoms: O_22  and  C_23
REMARK    7  A    between atoms: C_23  and  C_24
REMARK                            x       y       z     vdW  Elec       q    Type
REMARK                         _______ _______ _______ _____ _____    ______ ____
ROOT
ATOM      1  S   UNL     1       0.735  -0.588   0.002  0.00  0.00    +0.000 S 
ATOM      2  O   UNL     1       0.411  -1.938   0.576  0.00  0.00    +0.000 OA
ATOM      3  O   UNL     1       0.577   0.455   1.073  0.00  0.00    +0.000 OA
ENDROOT
BRANCH   1   4
ATOM      4  C   UNL     1      -0.371  -0.200  -1.366  0.00  0.00    +0.000 C 
ATOM      5  C   UNL     1       0.263   0.926  -2.216  0.00  0.00    +0.000 C 
ATOM      6  C   UNL     1      -0.779   1.672  -3.042  0.00  0.00    +0.000 C 
ATOM      7  C   UNL     1      -1.802   2.298  -2.099  0.00  0.00    +0.000 C 
ATOM      8  C   UNL     1      -2.418   1.256  -1.212  0.00  0.00    +0.000 C 
ATOM      9  C   UNL     1      -1.779   0.124  -0.856  0.00  0.00    +0.000 C 
BRANCH   9  10
ATOM     10  C   UNL     1      -2.529  -0.891  -0.081  0.00  0.00    +0.000 C 
ATOM     11  O   UNL     1      -2.217  -2.110  -0.170  0.00  0.00    +0.000 OA
BRANCH  10  12
ATOM     12  O   UNL     1      -3.600  -0.500   0.730  0.00  0.00    +0.000 OA
BRANCH  12  13
ATOM     13  C   UNL     1      -4.365  -1.426   1.495  0.00  0.00    +0.000 C 
ATOM     14  C   UNL     1      -5.446  -0.682   2.262  0.00  0.00    +0.000 C 
ENDBRANCH  12  13
ENDBRANCH  10  12
ENDBRANCH   9  10
ENDBRANCH   1   4
BRANCH   1  15
ATOM     15  N   UNL     1       2.373  -0.609  -0.563  0.00  0.00    +0.000 N 
ATOM     16  H   UNL     1       2.556  -1.132  -1.448  0.00  0.00    +0.000 HD
BRANCH  15  17
ATOM     17  C   UNL     1       3.454  -0.458   0.360  0.00  0.00    +0.000 A 
ATOM     18  C   UNL     1       3.825   0.811   0.844  0.00  0.00    +0.000 A 
ATOM     19 CL   UNL     1       3.022   2.272   0.287  0.00  0.00    +0.000 Cl
ATOM     20  C   UNL     1       4.886   0.927   1.751  0.00  0.00    +0.000 A 
ATOM     21  C   UNL     1       5.583  -0.211   2.168  0.00  0.00    +0.000 A 
ATOM     22  F   UNL     1       6.610  -0.092   3.045  0.00  0.00    +0.000 F 
ATOM     23  C   UNL     1       5.228  -1.468   1.674  0.00  0.00    +0.000 A 
ATOM     24  C   UNL     1       4.171  -1.592   0.768  0.00  0.00    +0.000 A 
ENDBRANCH  15  17
ENDBRANCH   1  15
TORSDOF 6
