REMARK  Name = C:\Users\Maximilian\Desktop\Conformers\converted_pdb\conformers_pdb\Resatorvid_conf_8.pdb
REMARK  7 active torsions:
REMARK  status: ('A' for Active; 'I' for Inactive)
REMARK    1  A    between atoms: S_1  and  N_4
REMARK    2  A    between atoms: S_1  and  C_14
REMARK    3  A    between atoms: N_4  and  C_6
REMARK    4  A    between atoms: C_19  and  C_20
REMARK    5  A    between atoms: C_20  and  O_22
REMARK    6  A    between atoms: O_22  and  C_23
REMARK    7  A    between atoms: C_23  and  C_24
REMARK                            x       y       z     vdW  Elec       q    Type
REMARK                         _______ _______ _______ _____ _____    ______ ____
ROOT
ATOM      1  S   UNL     1      -0.409  -0.739  -0.934  0.00  0.00    +0.000 S 
ATOM      2  O   UNL     1      -0.820   0.177  -2.052  0.00  0.00    +0.000 OA
ATOM      3  O   UNL     1      -1.451  -1.811  -0.774  0.00  0.00    +0.000 OA
ENDROOT
BRANCH   1   4
ATOM      4  C   UNL     1      -0.248   0.168   0.623  0.00  0.00    +0.000 C 
ATOM      5  C   UNL     1       0.753  -0.590   1.548  0.00  0.00    +0.000 C 
ATOM      6  C   UNL     1       0.558  -0.369   3.064  0.00  0.00    +0.000 C 
ATOM      7  C   UNL     1      -0.273   0.872   3.368  0.00  0.00    +0.000 C 
ATOM      8  C   UNL     1      -1.566   0.792   2.620  0.00  0.00    +0.000 C 
ATOM      9  C   UNL     1      -1.581   0.447   1.323  0.00  0.00    +0.000 C 
BRANCH   9  10
ATOM     10  C   UNL     1      -2.870   0.521   0.600  0.00  0.00    +0.000 C 
ATOM     11  O   UNL     1      -3.925   0.111   1.160  0.00  0.00    +0.000 OA
BRANCH  10  12
ATOM     12  O   UNL     1      -2.927   1.092  -0.675  0.00  0.00    +0.000 OA
BRANCH  12  13
ATOM     13  C   UNL     1      -4.116   1.146  -1.461  0.00  0.00    +0.000 C 
ATOM     14  C   UNL     1      -4.431  -0.224  -2.052  0.00  0.00    +0.000 C 
ENDBRANCH  12  13
ENDBRANCH  10  12
ENDBRANCH   9  10
ENDBRANCH   1   4
BRANCH   1  15
ATOM     15  N   UNL     1       1.094  -1.499  -1.362  0.00  0.00    +0.000 N 
ATOM     16  H   UNL     1       1.066  -2.534  -1.485  0.00  0.00    +0.000 HD
BRANCH  15  17
ATOM     17  C   UNL     1       2.353  -0.802  -1.445  0.00  0.00    +0.000 A 
ATOM     18  C   UNL     1       3.570  -1.512  -1.337  0.00  0.00    +0.000 A 
ATOM     19 CL   UNL     1       3.607  -3.251  -1.068  0.00  0.00    +0.000 Cl
ATOM     20  C   UNL     1       4.791  -0.831  -1.415  0.00  0.00    +0.000 A 
ATOM     21  C   UNL     1       4.817   0.552  -1.601  0.00  0.00    +0.000 A 
ATOM     22  F   UNL     1       6.003   1.204  -1.672  0.00  0.00    +0.000 F 
ATOM     23  C   UNL     1       3.622   1.263  -1.712  0.00  0.00    +0.000 A 
ATOM     24  C   UNL     1       2.398   0.594  -1.637  0.00  0.00    +0.000 A 
ENDBRANCH  15  17
ENDBRANCH   1  15
TORSDOF 6
