REMARK  Name = C:\Users\Maximilian\Desktop\Conformers\converted_pdb\conformers_pdb\Resatorvid_conf_18.pdb
REMARK  7 active torsions:
REMARK  status: ('A' for Active; 'I' for Inactive)
REMARK    1  A    between atoms: S_1  and  N_4
REMARK    2  A    between atoms: S_1  and  C_14
REMARK    3  A    between atoms: N_4  and  C_6
REMARK    4  A    between atoms: C_19  and  C_20
REMARK    5  A    between atoms: C_20  and  O_22
REMARK    6  A    between atoms: O_22  and  C_23
REMARK    7  A    between atoms: C_23  and  C_24
REMARK                            x       y       z     vdW  Elec       q    Type
REMARK                         _______ _______ _______ _____ _____    ______ ____
ROOT
ATOM      1  S   UNL     1      -0.684  -0.103  -2.426  0.00  0.00    +0.000 S 
ATOM      2  O   UNL     1      -1.855  -0.902  -2.925  0.00  0.00    +0.000 OA
ATOM      3  O   UNL     1      -0.045   0.562  -3.613  0.00  0.00    +0.000 OA
ENDROOT
BRANCH   1   4
ATOM      4  C   UNL     1       0.552  -1.175  -1.656  0.00  0.00    +0.000 C 
ATOM      5  C   UNL     1       0.017  -2.593  -1.386  0.00  0.00    +0.000 C 
ATOM      6  C   UNL     1      -0.884  -2.616  -0.155  0.00  0.00    +0.000 C 
ATOM      7  C   UNL     1      -0.119  -2.137   1.081  0.00  0.00    +0.000 C 
ATOM      8  C   UNL     1       0.738  -0.924   0.825  0.00  0.00    +0.000 C 
ATOM      9  C   UNL     1       1.121  -0.526  -0.405  0.00  0.00    +0.000 C 
BRANCH   9  10
ATOM     10  C   UNL     1       2.067   0.608  -0.549  0.00  0.00    +0.000 C 
ATOM     11  O   UNL     1       2.385   1.017  -1.700  0.00  0.00    +0.000 OA
BRANCH  10  12
ATOM     12  O   UNL     1       2.604   1.226   0.588  0.00  0.00    +0.000 OA
BRANCH  12  13
ATOM     13  C   UNL     1       3.535   2.305   0.532  0.00  0.00    +0.000 C 
ATOM     14  C   UNL     1       4.925   1.797   0.170  0.00  0.00    +0.000 C 
ENDBRANCH  12  13
ENDBRANCH  10  12
ENDBRANCH   9  10
ENDBRANCH   1   4
BRANCH   1  15
ATOM     15  N   UNL     1      -1.218   1.148  -1.339  0.00  0.00    +0.000 N 
ATOM     16  H   UNL     1      -0.685   2.044  -1.370  0.00  0.00    +0.000 HD
BRANCH  15  17
ATOM     17  C   UNL     1      -2.127   0.920  -0.249  0.00  0.00    +0.000 A 
ATOM     18  C   UNL     1      -1.855   1.452   1.030  0.00  0.00    +0.000 A 
ATOM     19 CL   UNL     1      -0.411   2.406   1.343  0.00  0.00    +0.000 Cl
ATOM     20  C   UNL     1      -2.740   1.219   2.089  0.00  0.00    +0.000 A 
ATOM     21  C   UNL     1      -3.908   0.483   1.883  0.00  0.00    +0.000 A 
ATOM     22  F   UNL     1      -4.762   0.262   2.913  0.00  0.00    +0.000 F 
ATOM     23  C   UNL     1      -4.206  -0.009   0.611  0.00  0.00    +0.000 A 
ATOM     24  C   UNL     1      -3.328   0.218  -0.452  0.00  0.00    +0.000 A 
ENDBRANCH  15  17
ENDBRANCH   1  15
TORSDOF 6
