REMARK  Name = C:\Users\Maximilian\Desktop\Conformers\converted_pdb\conformers_pdb\Resatorvid_conf_34.pdb
REMARK  7 active torsions:
REMARK  status: ('A' for Active; 'I' for Inactive)
REMARK    1  A    between atoms: S_1  and  N_4
REMARK    2  A    between atoms: S_1  and  C_14
REMARK    3  A    between atoms: N_4  and  C_6
REMARK    4  A    between atoms: C_19  and  C_20
REMARK    5  A    between atoms: C_20  and  O_22
REMARK    6  A    between atoms: O_22  and  C_23
REMARK    7  A    between atoms: C_23  and  C_24
REMARK                            x       y       z     vdW  Elec       q    Type
REMARK                         _______ _______ _______ _____ _____    ______ ____
ROOT
ATOM      1  S   UNL     1      -0.950   1.868   0.114  0.00  0.00    +0.000 S 
ATOM      2  O   UNL     1      -0.660   2.994  -0.839  0.00  0.00    +0.000 OA
ATOM      3  O   UNL     1      -1.877   2.380   1.182  0.00  0.00    +0.000 OA
ENDROOT
BRANCH   1   4
ATOM      4  C   UNL     1       0.596   1.270   0.825  0.00  0.00    +0.000 C 
ATOM      5  C   UNL     1       1.073   2.171   1.979  0.00  0.00    +0.000 C 
ATOM      6  C   UNL     1       1.661   3.480   1.453  0.00  0.00    +0.000 C 
ATOM      7  C   UNL     1       2.844   3.200   0.523  0.00  0.00    +0.000 C 
ATOM      8  C   UNL     1       2.592   2.076  -0.448  0.00  0.00    +0.000 C 
ATOM      9  C   UNL     1       1.645   1.132  -0.266  0.00  0.00    +0.000 C 
BRANCH   9  10
ATOM     10  C   UNL     1       1.576  -0.035  -1.181  0.00  0.00    +0.000 C 
ATOM     11  O   UNL     1       2.270  -0.062  -2.235  0.00  0.00    +0.000 OA
BRANCH  10  12
ATOM     12  O   UNL     1       0.738  -1.111  -0.865  0.00  0.00    +0.000 OA
BRANCH  12  13
ATOM     13  C   UNL     1       0.645  -2.296  -1.653  0.00  0.00    +0.000 C 
ATOM     14  C   UNL     1       1.866  -3.182  -1.439  0.00  0.00    +0.000 C 
ENDBRANCH  12  13
ENDBRANCH  10  12
ENDBRANCH   9  10
ENDBRANCH   1   4
BRANCH   1  15
ATOM     15  N   UNL     1      -1.737   0.598  -0.772  0.00  0.00    +0.000 N 
ATOM     16  H   UNL     1      -1.752   0.719  -1.807  0.00  0.00    +0.000 HD
BRANCH  15  17
ATOM     17  C   UNL     1      -2.320  -0.581  -0.176  0.00  0.00    +0.000 A 
ATOM     18  C   UNL     1      -2.901  -1.579  -0.994  0.00  0.00    +0.000 A 
ATOM     19 CL   UNL     1      -2.949  -1.437  -2.748  0.00  0.00    +0.000 Cl
ATOM     20  C   UNL     1      -3.450  -2.730  -0.418  0.00  0.00    +0.000 A 
ATOM     21  C   UNL     1      -3.433  -2.905   0.966  0.00  0.00    +0.000 A 
ATOM     22  F   UNL     1      -3.966  -4.024   1.516  0.00  0.00    +0.000 F 
ATOM     23  C   UNL     1      -2.867  -1.928   1.784  0.00  0.00    +0.000 A 
ATOM     24  C   UNL     1      -2.315  -0.774   1.221  0.00  0.00    +0.000 A 
ENDBRANCH  15  17
ENDBRANCH   1  15
TORSDOF 6
