REMARK  Name = C:\Users\Maximilian\Desktop\Conformers\converted_pdb\conformers_pdb\Resatorvid_conf_21.pdb
REMARK  7 active torsions:
REMARK  status: ('A' for Active; 'I' for Inactive)
REMARK    1  A    between atoms: S_1  and  N_4
REMARK    2  A    between atoms: S_1  and  C_14
REMARK    3  A    between atoms: N_4  and  C_6
REMARK    4  A    between atoms: C_19  and  C_20
REMARK    5  A    between atoms: C_20  and  O_22
REMARK    6  A    between atoms: O_22  and  C_23
REMARK    7  A    between atoms: C_23  and  C_24
REMARK                            x       y       z     vdW  Elec       q    Type
REMARK                         _______ _______ _______ _____ _____    ______ ____
ROOT
ATOM      1  S   UNL     1       0.364  -0.220   0.613  0.00  0.00    +0.000 S 
ATOM      2  O   UNL     1      -0.304   0.040   1.934  0.00  0.00    +0.000 OA
ATOM      3  O   UNL     1       0.562   1.088  -0.102  0.00  0.00    +0.000 OA
ENDROOT
BRANCH   1   4
ATOM      4  C   UNL     1      -0.673  -1.300  -0.390  0.00  0.00    +0.000 C 
ATOM      5  C   UNL     1       0.094  -1.874  -1.598  0.00  0.00    +0.000 C 
ATOM      6  C   UNL     1       0.252  -0.835  -2.707  0.00  0.00    +0.000 C 
ATOM      7  C   UNL     1      -1.118  -0.342  -3.178  0.00  0.00    +0.000 C 
ATOM      8  C   UNL     1      -2.069  -0.047  -2.047  0.00  0.00    +0.000 C 
ATOM      9  C   UNL     1      -1.937  -0.562  -0.808  0.00  0.00    +0.000 C 
BRANCH   9  10
ATOM     10  C   UNL     1      -3.012  -0.345   0.192  0.00  0.00    +0.000 C 
ATOM     11  O   UNL     1      -2.957  -0.928   1.309  0.00  0.00    +0.000 OA
BRANCH  10  12
ATOM     12  O   UNL     1      -4.092   0.496  -0.107  0.00  0.00    +0.000 OA
BRANCH  12  13
ATOM     13  C   UNL     1      -5.122   0.816   0.826  0.00  0.00    +0.000 C 
ATOM     14  C   UNL     1      -4.620   1.824   1.853  0.00  0.00    +0.000 C 
ENDBRANCH  12  13
ENDBRANCH  10  12
ENDBRANCH   9  10
ENDBRANCH   1   4
BRANCH   1  15
ATOM     15  N   UNL     1       1.900  -0.973   0.902  0.00  0.00    +0.000 N 
ATOM     16  H   UNL     1       1.928  -2.017   0.917  0.00  0.00    +0.000 HD
BRANCH  15  17
ATOM     17  C   UNL     1       3.120  -0.228   1.046  0.00  0.00    +0.000 A 
ATOM     18  C   UNL     1       4.346  -0.776   0.616  0.00  0.00    +0.000 A 
ATOM     19 CL   UNL     1       4.422  -2.351  -0.165  0.00  0.00    +0.000 Cl
ATOM     20  C   UNL     1       5.533  -0.051   0.776  0.00  0.00    +0.000 A 
ATOM     21  C   UNL     1       5.512   1.213   1.369  0.00  0.00    +0.000 A 
ATOM     22  F   UNL     1       6.665   1.910   1.522  0.00  0.00    +0.000 F 
ATOM     23  C   UNL     1       4.304   1.759   1.806  0.00  0.00    +0.000 A 
ATOM     24  C   UNL     1       3.114   1.043   1.649  0.00  0.00    +0.000 A 
ENDBRANCH  15  17
ENDBRANCH   1  15
TORSDOF 6
