REMARK  Name = C:\Users\Maximilian\Desktop\Conformers\converted_pdb\conformers_pdb\Resatorvid_conf_19.pdb
REMARK  7 active torsions:
REMARK  status: ('A' for Active; 'I' for Inactive)
REMARK    1  A    between atoms: S_1  and  N_4
REMARK    2  A    between atoms: S_1  and  C_14
REMARK    3  A    between atoms: N_4  and  C_6
REMARK    4  A    between atoms: C_19  and  C_20
REMARK    5  A    between atoms: C_20  and  O_22
REMARK    6  A    between atoms: O_22  and  C_23
REMARK    7  A    between atoms: C_23  and  C_24
REMARK                            x       y       z     vdW  Elec       q    Type
REMARK                         _______ _______ _______ _____ _____    ______ ____
ROOT
ATOM      1  S   UNL     1       0.769  -0.393  -1.454  0.00  0.00    +0.000 S 
ATOM      2  O   UNL     1       0.711   0.963  -2.099  0.00  0.00    +0.000 OA
ATOM      3  O   UNL     1       0.187  -1.395  -2.412  0.00  0.00    +0.000 OA
ENDROOT
BRANCH   1   4
ATOM      4  C   UNL     1      -0.187  -0.400   0.076  0.00  0.00    +0.000 C 
ATOM      5  C   UNL     1       0.150  -1.620   0.955  0.00  0.00    +0.000 C 
ATOM      6  C   UNL     1      -0.502  -2.892   0.417  0.00  0.00    +0.000 C 
ATOM      7  C   UNL     1      -2.022  -2.731   0.357  0.00  0.00    +0.000 C 
ATOM      8  C   UNL     1      -2.461  -1.404  -0.205  0.00  0.00    +0.000 C 
ATOM      9  C   UNL     1      -1.672  -0.311  -0.242  0.00  0.00    +0.000 C 
BRANCH   9  10
ATOM     10  C   UNL     1      -2.244   0.991  -0.664  0.00  0.00    +0.000 C 
ATOM     11  O   UNL     1      -1.540   2.036  -0.603  0.00  0.00    +0.000 OA
BRANCH  10  12
ATOM     12  O   UNL     1      -3.565   1.063  -1.128  0.00  0.00    +0.000 OA
BRANCH  12  13
ATOM     13  C   UNL     1      -4.204   2.283  -1.499  0.00  0.00    +0.000 C 
ATOM     14  C   UNL     1      -4.602   3.079  -0.262  0.00  0.00    +0.000 C 
ENDBRANCH  12  13
ENDBRANCH  10  12
ENDBRANCH   9  10
ENDBRANCH   1   4
BRANCH   1  15
ATOM     15  N   UNL     1       2.427  -0.812  -1.151  0.00  0.00    +0.000 N 
ATOM     16  H   UNL     1       2.793  -1.642  -1.665  0.00  0.00    +0.000 HD
BRANCH  15  17
ATOM     17  C   UNL     1       3.244  -0.169  -0.153  0.00  0.00    +0.000 A 
ATOM     18  C   UNL     1       4.353  -0.844   0.403  0.00  0.00    +0.000 A 
ATOM     19 CL   UNL     1       4.761  -2.492  -0.059  0.00  0.00    +0.000 Cl
ATOM     20  C   UNL     1       5.146  -0.215   1.371  0.00  0.00    +0.000 A 
ATOM     21  C   UNL     1       4.850   1.083   1.791  0.00  0.00    +0.000 A 
ATOM     22  F   UNL     1       5.622   1.685   2.729  0.00  0.00    +0.000 F 
ATOM     23  C   UNL     1       3.759   1.760   1.245  0.00  0.00    +0.000 A 
ATOM     24  C   UNL     1       2.962   1.142   0.279  0.00  0.00    +0.000 A 
ENDBRANCH  15  17
ENDBRANCH   1  15
TORSDOF 6
