REMARK  Name = C:\Users\Maximilian\Desktop\Conformers\converted_pdb\conformers_pdb\Resatorvid_conf_1.pdb
REMARK  7 active torsions:
REMARK  status: ('A' for Active; 'I' for Inactive)
REMARK    1  A    between atoms: S_1  and  N_4
REMARK    2  A    between atoms: S_1  and  C_14
REMARK    3  A    between atoms: N_4  and  C_6
REMARK    4  A    between atoms: C_19  and  C_20
REMARK    5  A    between atoms: C_20  and  O_22
REMARK    6  A    between atoms: O_22  and  C_23
REMARK    7  A    between atoms: C_23  and  C_24
REMARK                            x       y       z     vdW  Elec       q    Type
REMARK                         _______ _______ _______ _____ _____    ______ ____
ROOT
ATOM      1  S   UNL     1      -0.293  -0.531   1.707  0.00  0.00    +0.000 S 
ATOM      2  O   UNL     1       0.245   0.726   2.331  0.00  0.00    +0.000 OA
ATOM      3  O   UNL     1       0.128  -1.696   2.558  0.00  0.00    +0.000 OA
ENDROOT
BRANCH   1   4
ATOM      4  C   UNL     1       0.362  -0.735   0.039  0.00  0.00    +0.000 C 
ATOM      5  C   UNL     1      -0.421  -1.798  -0.757  0.00  0.00    +0.000 C 
ATOM      6  C   UNL     1      -0.040  -3.213  -0.326  0.00  0.00    +0.000 C 
ATOM      7  C   UNL     1       1.459  -3.448  -0.525  0.00  0.00    +0.000 C 
ATOM      8  C   UNL     1       2.313  -2.299  -0.057  0.00  0.00    +0.000 C 
ATOM      9  C   UNL     1       1.850  -1.041   0.101  0.00  0.00    +0.000 C 
BRANCH   9  10
ATOM     10  C   UNL     1       2.793   0.065   0.401  0.00  0.00    +0.000 C 
ATOM     11  O   UNL     1       4.016  -0.175   0.606  0.00  0.00    +0.000 OA
BRANCH  10  12
ATOM     12  O   UNL     1       2.319   1.381   0.454  0.00  0.00    +0.000 OA
BRANCH  12  13
ATOM     13  C   UNL     1       3.155   2.512   0.689  0.00  0.00    +0.000 C 
ATOM     14  C   UNL     1       3.948   2.864  -0.564  0.00  0.00    +0.000 C 
ENDBRANCH  12  13
ENDBRANCH  10  12
ENDBRANCH   9  10
ENDBRANCH   1   4
BRANCH   1  15
ATOM     15  N   UNL     1      -2.028  -0.457   1.682  0.00  0.00    +0.000 N 
ATOM     16  H   UNL     1      -2.528  -1.173   2.253  0.00  0.00    +0.000 HD
BRANCH  15  17
ATOM     17  C   UNL     1      -2.775   0.425   0.823  0.00  0.00    +0.000 A 
ATOM     18  C   UNL     1      -4.098   0.101   0.445  0.00  0.00    +0.000 A 
ATOM     19 CL   UNL     1      -4.868  -1.394   0.963  0.00  0.00    +0.000 Cl
ATOM     20  C   UNL     1      -4.821   0.963  -0.388  0.00  0.00    +0.000 A 
ATOM     21  C   UNL     1      -4.246   2.149  -0.848  0.00  0.00    +0.000 A 
ATOM     22  F   UNL     1      -4.953   2.978  -1.655  0.00  0.00    +0.000 F 
ATOM     23  C   UNL     1      -2.943   2.480  -0.477  0.00  0.00    +0.000 A 
ATOM     24  C   UNL     1      -2.211   1.628   0.354  0.00  0.00    +0.000 A 
ENDBRANCH  15  17
ENDBRANCH   1  15
TORSDOF 6
