REMARK  Name = C:\Users\Maximilian\Desktop\Conformers\converted_pdb\conformers_pdb\Resatorvid_conf_30.pdb
REMARK  7 active torsions:
REMARK  status: ('A' for Active; 'I' for Inactive)
REMARK    1  A    between atoms: S_1  and  N_4
REMARK    2  A    between atoms: S_1  and  C_14
REMARK    3  A    between atoms: N_4  and  C_6
REMARK    4  A    between atoms: C_19  and  C_20
REMARK    5  A    between atoms: C_20  and  O_22
REMARK    6  A    between atoms: O_22  and  C_23
REMARK    7  A    between atoms: C_23  and  C_24
REMARK                            x       y       z     vdW  Elec       q    Type
REMARK                         _______ _______ _______ _____ _____    ______ ____
ROOT
ATOM      1  S   UNL     1      -1.205  -0.910   0.751  0.00  0.00    +0.000 S 
ATOM      2  O   UNL     1      -1.156  -0.188   2.069  0.00  0.00    +0.000 OA
ATOM      3  O   UNL     1      -2.445  -1.757   0.693  0.00  0.00    +0.000 OA
ENDROOT
BRANCH   1   4
ATOM      4  C   UNL     1       0.231  -1.984   0.591  0.00  0.00    +0.000 C 
ATOM      5  C   UNL     1       0.201  -3.074   1.688  0.00  0.00    +0.000 C 
ATOM      6  C   UNL     1       1.490  -3.936   1.754  0.00  0.00    +0.000 C 
ATOM      7  C   UNL     1       2.525  -3.576   0.677  0.00  0.00    +0.000 C 
ATOM      8  C   UNL     1       2.680  -2.086   0.582  0.00  0.00    +0.000 C 
ATOM      9  C   UNL     1       1.596  -1.294   0.571  0.00  0.00    +0.000 C 
BRANCH   9  10
ATOM     10  C   UNL     1       1.800   0.168   0.459  0.00  0.00    +0.000 C 
ATOM     11  O   UNL     1       1.099   0.968   1.134  0.00  0.00    +0.000 OA
BRANCH  10  12
ATOM     12  O   UNL     1       2.824   0.655  -0.363  0.00  0.00    +0.000 OA
BRANCH  12  13
ATOM     13  C   UNL     1       3.080   2.045  -0.558  0.00  0.00    +0.000 C 
ATOM     14  C   UNL     1       2.022   2.666  -1.463  0.00  0.00    +0.000 C 
ENDBRANCH  12  13
ENDBRANCH  10  12
ENDBRANCH   9  10
ENDBRANCH   1   4
BRANCH   1  15
ATOM     15  N   UNL     1      -1.235   0.224  -0.565  0.00  0.00    +0.000 N 
ATOM     16  H   UNL     1      -0.477   0.119  -1.274  0.00  0.00    +0.000 HD
BRANCH  15  17
ATOM     17  C   UNL     1      -2.266   1.216  -0.756  0.00  0.00    +0.000 A 
ATOM     18  C   UNL     1      -2.281   2.015  -1.924  0.00  0.00    +0.000 A 
ATOM     19 CL   UNL     1      -1.086   1.823  -3.202  0.00  0.00    +0.000 Cl
ATOM     20  C   UNL     1      -3.275   2.985  -2.101  0.00  0.00    +0.000 A 
ATOM     21  C   UNL     1      -4.261   3.171  -1.132  0.00  0.00    +0.000 A 
ATOM     22  F   UNL     1      -5.220   4.112  -1.311  0.00  0.00    +0.000 F 
ATOM     23  C   UNL     1      -4.261   2.386   0.021  0.00  0.00    +0.000 A 
ATOM     24  C   UNL     1      -3.274   1.415   0.210  0.00  0.00    +0.000 A 
ENDBRANCH  15  17
ENDBRANCH   1  15
TORSDOF 6
