REMARK  Name = C:\Users\Maximilian\Desktop\Conformers\converted_pdb\conformers_pdb\Resatorvid_conf_6.pdb
REMARK  7 active torsions:
REMARK  status: ('A' for Active; 'I' for Inactive)
REMARK    1  A    between atoms: S_1  and  N_4
REMARK    2  A    between atoms: S_1  and  C_14
REMARK    3  A    between atoms: N_4  and  C_6
REMARK    4  A    between atoms: C_19  and  C_20
REMARK    5  A    between atoms: C_20  and  O_22
REMARK    6  A    between atoms: O_22  and  C_23
REMARK    7  A    between atoms: C_23  and  C_24
REMARK                            x       y       z     vdW  Elec       q    Type
REMARK                         _______ _______ _______ _____ _____    ______ ____
ROOT
ATOM      1  S   UNL     1      -1.014   1.956  -0.046  0.00  0.00    +0.000 S 
ATOM      2  O   UNL     1      -0.279   2.873  -0.983  0.00  0.00    +0.000 OA
ATOM      3  O   UNL     1      -1.983   2.778   0.759  0.00  0.00    +0.000 OA
ENDROOT
BRANCH   1   4
ATOM      4  C   UNL     1       0.186   1.145   1.032  0.00  0.00    +0.000 C 
ATOM      5  C   UNL     1       0.456   2.057   2.250  0.00  0.00    +0.000 C 
ATOM      6  C   UNL     1       1.770   1.704   2.939  0.00  0.00    +0.000 C 
ATOM      7  C   UNL     1       2.915   1.887   1.948  0.00  0.00    +0.000 C 
ATOM      8  C   UNL     1       2.680   1.090   0.697  0.00  0.00    +0.000 C 
ATOM      9  C   UNL     1       1.449   0.763   0.256  0.00  0.00    +0.000 C 
BRANCH   9  10
ATOM     10  C   UNL     1       1.344  -0.125  -0.924  0.00  0.00    +0.000 C 
ATOM     11  O   UNL     1       0.367  -0.914  -1.031  0.00  0.00    +0.000 OA
BRANCH  10  12
ATOM     12  O   UNL     1       2.342  -0.102  -1.907  0.00  0.00    +0.000 OA
BRANCH  12  13
ATOM     13  C   UNL     1       2.337  -0.954  -3.050  0.00  0.00    +0.000 C 
ATOM     14  C   UNL     1       2.758  -2.369  -2.668  0.00  0.00    +0.000 C 
ENDBRANCH  12  13
ENDBRANCH  10  12
ENDBRANCH   9  10
ENDBRANCH   1   4
BRANCH   1  15
ATOM     15  N   UNL     1      -1.901   0.795  -0.985  0.00  0.00    +0.000 N 
ATOM     16  H   UNL     1      -1.819   0.889  -2.020  0.00  0.00    +0.000 HD
BRANCH  15  17
ATOM     17  C   UNL     1      -2.648  -0.301  -0.419  0.00  0.00    +0.000 A 
ATOM     18  C   UNL     1      -3.024  -1.399  -1.227  0.00  0.00    +0.000 A 
ATOM     19 CL   UNL     1      -2.574  -1.499  -2.927  0.00  0.00    +0.000 Cl
ATOM     20  C   UNL     1      -3.752  -2.461  -0.677  0.00  0.00    +0.000 A 
ATOM     21  C   UNL     1      -4.115  -2.445   0.670  0.00  0.00    +0.000 A 
ATOM     22  F   UNL     1      -4.820  -3.477   1.195  0.00  0.00    +0.000 F 
ATOM     23  C   UNL     1      -3.753  -1.366   1.476  0.00  0.00    +0.000 A 
ATOM     24  C   UNL     1      -3.027  -0.300   0.939  0.00  0.00    +0.000 A 
ENDBRANCH  15  17
ENDBRANCH   1  15
TORSDOF 6
