REMARK  Name = C:\Users\Maximilian\Desktop\Conformers\converted_pdb\conformers_pdb\Resatorvid_conf_5.pdb
REMARK  7 active torsions:
REMARK  status: ('A' for Active; 'I' for Inactive)
REMARK    1  A    between atoms: S_1  and  N_4
REMARK    2  A    between atoms: S_1  and  C_14
REMARK    3  A    between atoms: N_4  and  C_6
REMARK    4  A    between atoms: C_19  and  C_20
REMARK    5  A    between atoms: C_20  and  O_22
REMARK    6  A    between atoms: O_22  and  C_23
REMARK    7  A    between atoms: C_23  and  C_24
REMARK                            x       y       z     vdW  Elec       q    Type
REMARK                         _______ _______ _______ _____ _____    ______ ____
ROOT
ATOM      1  S   UNL     1       0.659   0.610   1.398  0.00  0.00    +0.000 S 
ATOM      2  O   UNL     1      -0.181   0.619   2.645  0.00  0.00    +0.000 OA
ATOM      3  O   UNL     1       0.874   2.028   0.951  0.00  0.00    +0.000 OA
ENDROOT
BRANCH   1   4
ATOM      4  C   UNL     1      -0.193  -0.343   0.124  0.00  0.00    +0.000 C 
ATOM      5  C   UNL     1       0.649  -0.399  -1.177  0.00  0.00    +0.000 C 
ATOM      6  C   UNL     1      -0.129  -0.898  -2.421  0.00  0.00    +0.000 C 
ATOM      7  C   UNL     1      -1.501  -1.488  -2.071  0.00  0.00    +0.000 C 
ATOM      8  C   UNL     1      -2.252  -0.523  -1.202  0.00  0.00    +0.000 C 
ATOM      9  C   UNL     1      -1.632   0.084  -0.177  0.00  0.00    +0.000 C 
BRANCH   9  10
ATOM     10  C   UNL     1      -2.410   1.046   0.633  0.00  0.00    +0.000 C 
ATOM     11  O   UNL     1      -1.896   2.137   1.001  0.00  0.00    +0.000 OA
BRANCH  10  12
ATOM     12  O   UNL     1      -3.747   0.765   0.933  0.00  0.00    +0.000 OA
BRANCH  12  13
ATOM     13  C   UNL     1      -4.569   1.651   1.687  0.00  0.00    +0.000 C 
ATOM     14  C   UNL     1      -5.957   1.051   1.838  0.00  0.00    +0.000 C 
ENDBRANCH  12  13
ENDBRANCH  10  12
ENDBRANCH   9  10
ENDBRANCH   1   4
BRANCH   1  15
ATOM     15  N   UNL     1       2.180  -0.132   1.795  0.00  0.00    +0.000 N 
ATOM     16  H   UNL     1       2.208  -0.690   2.677  0.00  0.00    +0.000 HD
BRANCH  15  17
ATOM     17  C   UNL     1       3.270  -0.244   0.867  0.00  0.00    +0.000 A 
ATOM     18  C   UNL     1       3.963  -1.465   0.730  0.00  0.00    +0.000 A 
ATOM     19 CL   UNL     1       3.492  -2.893   1.642  0.00  0.00    +0.000 Cl
ATOM     20  C   UNL     1       5.024  -1.572  -0.178  0.00  0.00    +0.000 A 
ATOM     21  C   UNL     1       5.408  -0.470  -0.945  0.00  0.00    +0.000 A 
ATOM     22  F   UNL     1       6.436  -0.580  -1.823  0.00  0.00    +0.000 F 
ATOM     23  C   UNL     1       4.736   0.745  -0.806  0.00  0.00    +0.000 A 
ATOM     24  C   UNL     1       3.676   0.861   0.097  0.00  0.00    +0.000 A 
ENDBRANCH  15  17
ENDBRANCH   1  15
TORSDOF 6
