REMARK  Name = C:\Users\Maximilian\Desktop\Conformers\converted_pdb\conformers_pdb\Resatorvid_conf_26.pdb
REMARK  7 active torsions:
REMARK  status: ('A' for Active; 'I' for Inactive)
REMARK    1  A    between atoms: S_1  and  N_4
REMARK    2  A    between atoms: S_1  and  C_14
REMARK    3  A    between atoms: N_4  and  C_6
REMARK    4  A    between atoms: C_19  and  C_20
REMARK    5  A    between atoms: C_20  and  O_22
REMARK    6  A    between atoms: O_22  and  C_23
REMARK    7  A    between atoms: C_23  and  C_24
REMARK                            x       y       z     vdW  Elec       q    Type
REMARK                         _______ _______ _______ _____ _____    ______ ____
ROOT
ATOM      1  S   UNL     1       1.241  -1.156   1.342  0.00  0.00    +0.000 S 
ATOM      2  O   UNL     1       2.380  -2.027   1.794  0.00  0.00    +0.000 OA
ATOM      3  O   UNL     1       1.002  -0.095   2.379  0.00  0.00    +0.000 OA
ENDROOT
BRANCH   1   4
ATOM      4  C   UNL     1      -0.256  -2.135   1.136  0.00  0.00    +0.000 C 
ATOM      5  C   UNL     1       0.127  -3.518   0.560  0.00  0.00    +0.000 C 
ATOM      6  C   UNL     1      -1.054  -4.192  -0.130  0.00  0.00    +0.000 C 
ATOM      7  C   UNL     1      -1.529  -3.307  -1.279  0.00  0.00    +0.000 C 
ATOM      8  C   UNL     1      -1.860  -1.927  -0.792  0.00  0.00    +0.000 C 
ATOM      9  C   UNL     1      -1.281  -1.373   0.291  0.00  0.00    +0.000 C 
BRANCH   9  10
ATOM     10  C   UNL     1      -1.754  -0.042   0.738  0.00  0.00    +0.000 C 
ATOM     11  O   UNL     1      -1.668   0.280   1.955  0.00  0.00    +0.000 OA
BRANCH  10  12
ATOM     12  O   UNL     1      -2.320   0.847  -0.185  0.00  0.00    +0.000 OA
BRANCH  12  13
ATOM     13  C   UNL     1      -2.726   2.172   0.151  0.00  0.00    +0.000 C 
ATOM     14  C   UNL     1      -1.516   3.093   0.261  0.00  0.00    +0.000 C 
ENDBRANCH  12  13
ENDBRANCH  10  12
ENDBRANCH   9  10
ENDBRANCH   1   4
BRANCH   1  15
ATOM     15  N   UNL     1       1.643  -0.429  -0.181  0.00  0.00    +0.000 N 
ATOM     16  H   UNL     1       1.450  -0.993  -1.038  0.00  0.00    +0.000 HD
BRANCH  15  17
ATOM     17  C   UNL     1       1.989   0.957  -0.310  0.00  0.00    +0.000 A 
ATOM     18  C   UNL     1       1.518   1.712  -1.403  0.00  0.00    +0.000 A 
ATOM     19 CL   UNL     1       0.440   1.011  -2.605  0.00  0.00    +0.000 Cl
ATOM     20  C   UNL     1       1.872   3.061  -1.527  0.00  0.00    +0.000 A 
ATOM     21  C   UNL     1       2.697   3.663  -0.574  0.00  0.00    +0.000 A 
ATOM     22  F   UNL     1       3.034   4.971  -0.698  0.00  0.00    +0.000 F 
ATOM     23  C   UNL     1       3.178   2.918   0.504  0.00  0.00    +0.000 A 
ATOM     24  C   UNL     1       2.831   1.571   0.635  0.00  0.00    +0.000 A 
ENDBRANCH  15  17
ENDBRANCH   1  15
TORSDOF 6
