REMARK  Name = C:\Users\Maximilian\Desktop\Conformers\converted_pdb\conformers_pdb\Resatorvid_conf_12.pdb
REMARK  7 active torsions:
REMARK  status: ('A' for Active; 'I' for Inactive)
REMARK    1  A    between atoms: S_1  and  N_4
REMARK    2  A    between atoms: S_1  and  C_14
REMARK    3  A    between atoms: N_4  and  C_6
REMARK    4  A    between atoms: C_19  and  C_20
REMARK    5  A    between atoms: C_20  and  O_22
REMARK    6  A    between atoms: O_22  and  C_23
REMARK    7  A    between atoms: C_23  and  C_24
REMARK                            x       y       z     vdW  Elec       q    Type
REMARK                         _______ _______ _______ _____ _____    ______ ____
ROOT
ATOM      1  S   UNL     1      -0.550   0.345  -1.445  0.00  0.00    +0.000 S 
ATOM      2  O   UNL     1      -1.103   1.688  -1.067  0.00  0.00    +0.000 OA
ATOM      3  O   UNL     1      -1.516  -0.315  -2.388  0.00  0.00    +0.000 OA
ENDROOT
BRANCH   1   4
ATOM      4  C   UNL     1      -0.360  -0.687   0.024  0.00  0.00    +0.000 C 
ATOM      5  C   UNL     1       0.552  -1.903  -0.242  0.00  0.00    +0.000 C 
ATOM      6  C   UNL     1      -0.187  -2.994  -1.020  0.00  0.00    +0.000 C 
ATOM      7  C   UNL     1      -1.418  -3.459  -0.244  0.00  0.00    +0.000 C 
ATOM      8  C   UNL     1      -2.233  -2.324   0.313  0.00  0.00    +0.000 C 
ATOM      9  C   UNL     1      -1.731  -1.093   0.541  0.00  0.00    +0.000 C 
BRANCH   9  10
ATOM     10  C   UNL     1      -2.563  -0.068   1.218  0.00  0.00    +0.000 C 
ATOM     11  O   UNL     1      -3.795  -0.266   1.397  0.00  0.00    +0.000 OA
BRANCH  10  12
ATOM     12  O   UNL     1      -1.975   1.129   1.644  0.00  0.00    +0.000 OA
BRANCH  12  13
ATOM     13  C   UNL     1      -2.697   2.194   2.261  0.00  0.00    +0.000 C 
ATOM     14  C   UNL     1      -3.043   1.848   3.704  0.00  0.00    +0.000 C 
ENDBRANCH  12  13
ENDBRANCH  10  12
ENDBRANCH   9  10
ENDBRANCH   1   4
BRANCH   1  15
ATOM     15  N   UNL     1       0.961   0.566  -2.270  0.00  0.00    +0.000 N 
ATOM     16  H   UNL     1       0.972   0.309  -3.287  0.00  0.00    +0.000 HD
BRANCH  15  17
ATOM     17  C   UNL     1       2.178   0.978  -1.617  0.00  0.00    +0.000 A 
ATOM     18  C   UNL     1       3.433   0.674  -2.192  0.00  0.00    +0.000 A 
ATOM     19 CL   UNL     1       3.563  -0.211  -3.713  0.00  0.00    +0.000 Cl
ATOM     20  C   UNL     1       4.616   1.052  -1.540  0.00  0.00    +0.000 A 
ATOM     21  C   UNL     1       4.567   1.737  -0.323  0.00  0.00    +0.000 A 
ATOM     22  F   UNL     1       5.715   2.081   0.307  0.00  0.00    +0.000 F 
ATOM     23  C   UNL     1       3.331   2.058   0.241  0.00  0.00    +0.000 A 
ATOM     24  C   UNL     1       2.144   1.686  -0.400  0.00  0.00    +0.000 A 
ENDBRANCH  15  17
ENDBRANCH   1  15
TORSDOF 6
