REMARK  Name = C:\Users\Maximilian\Desktop\Conformers\converted_pdb\conformers_pdb\Resatorvid_conf_11.pdb
REMARK  7 active torsions:
REMARK  status: ('A' for Active; 'I' for Inactive)
REMARK    1  A    between atoms: S_1  and  N_4
REMARK    2  A    between atoms: S_1  and  C_14
REMARK    3  A    between atoms: N_4  and  C_6
REMARK    4  A    between atoms: C_19  and  C_20
REMARK    5  A    between atoms: C_20  and  O_22
REMARK    6  A    between atoms: O_22  and  C_23
REMARK    7  A    between atoms: C_23  and  C_24
REMARK                            x       y       z     vdW  Elec       q    Type
REMARK                         _______ _______ _______ _____ _____    ______ ____
ROOT
ATOM      1  S   UNL     1       0.140  -0.858  -1.995  0.00  0.00    +0.000 S 
ATOM      2  O   UNL     1      -1.214  -0.832  -2.649  0.00  0.00    +0.000 OA
ATOM      3  O   UNL     1       1.041  -1.743  -2.812  0.00  0.00    +0.000 OA
ENDROOT
BRANCH   1   4
ATOM      4  C   UNL     1      -0.038  -1.500  -0.318  0.00  0.00    +0.000 C 
ATOM      5  C   UNL     1       0.034  -3.043  -0.365  0.00  0.00    +0.000 C 
ATOM      6  C   UNL     1      -0.577  -3.675   0.881  0.00  0.00    +0.000 C 
ATOM      7  C   UNL     1      -2.046  -3.272   0.973  0.00  0.00    +0.000 C 
ATOM      8  C   UNL     1      -2.199  -1.779   0.942  0.00  0.00    +0.000 C 
ATOM      9  C   UNL     1      -1.310  -0.962   0.343  0.00  0.00    +0.000 C 
BRANCH   9  10
ATOM     10  C   UNL     1      -1.504   0.499   0.478  0.00  0.00    +0.000 C 
ATOM     11  O   UNL     1      -0.504   1.267   0.490  0.00  0.00    +0.000 OA
BRANCH  10  12
ATOM     12  O   UNL     1      -2.796   1.024   0.612  0.00  0.00    +0.000 OA
BRANCH  12  13
ATOM     13  C   UNL     1      -3.065   2.413   0.789  0.00  0.00    +0.000 C 
ATOM     14  C   UNL     1      -2.751   2.844   2.217  0.00  0.00    +0.000 C 
ENDBRANCH  12  13
ENDBRANCH  10  12
ENDBRANCH   9  10
ENDBRANCH   1   4
BRANCH   1  15
ATOM     15  N   UNL     1       0.786   0.754  -1.988  0.00  0.00    +0.000 N 
ATOM     16  H   UNL     1       0.185   1.487  -2.423  0.00  0.00    +0.000 HD
BRANCH  15  17
ATOM     17  C   UNL     1       2.028   1.124  -1.356  0.00  0.00    +0.000 A 
ATOM     18  C   UNL     1       2.303   2.480  -1.065  0.00  0.00    +0.000 A 
ATOM     19 CL   UNL     1       1.147   3.759  -1.420  0.00  0.00    +0.000 Cl
ATOM     20  C   UNL     1       3.512   2.837  -0.455  0.00  0.00    +0.000 A 
ATOM     21  C   UNL     1       4.455   1.862  -0.131  0.00  0.00    +0.000 A 
ATOM     22  F   UNL     1       5.622   2.216   0.461  0.00  0.00    +0.000 F 
ATOM     23  C   UNL     1       4.196   0.521  -0.415  0.00  0.00    +0.000 A 
ATOM     24  C   UNL     1       2.994   0.152  -1.024  0.00  0.00    +0.000 A 
ENDBRANCH  15  17
ENDBRANCH   1  15
TORSDOF 6
