REMARK  Name = C:\Users\Maximilian\Desktop\Conformers\converted_pdb\conformers_pdb\Resatorvid_conf_16.pdb
REMARK  7 active torsions:
REMARK  status: ('A' for Active; 'I' for Inactive)
REMARK    1  A    between atoms: S_1  and  N_4
REMARK    2  A    between atoms: S_1  and  C_14
REMARK    3  A    between atoms: N_4  and  C_6
REMARK    4  A    between atoms: C_19  and  C_20
REMARK    5  A    between atoms: C_20  and  O_22
REMARK    6  A    between atoms: O_22  and  C_23
REMARK    7  A    between atoms: C_23  and  C_24
REMARK                            x       y       z     vdW  Elec       q    Type
REMARK                         _______ _______ _______ _____ _____    ______ ____
ROOT
ATOM      1  S   UNL     1      -0.489   1.421   0.044  0.00  0.00    +0.000 S 
ATOM      2  O   UNL     1       0.383   2.563  -0.395  0.00  0.00    +0.000 OA
ATOM      3  O   UNL     1      -0.625   1.481   1.540  0.00  0.00    +0.000 OA
ENDROOT
BRANCH   1   4
ATOM      4  C   UNL     1       0.249  -0.152  -0.435  0.00  0.00    +0.000 C 
ATOM      5  C   UNL     1      -0.743  -1.299  -0.112  0.00  0.00    +0.000 C 
ATOM      6  C   UNL     1      -0.037  -2.623   0.167  0.00  0.00    +0.000 C 
ATOM      7  C   UNL     1       0.929  -2.429   1.331  0.00  0.00    +0.000 C 
ATOM      8  C   UNL     1       1.923  -1.355   1.009  0.00  0.00    +0.000 C 
ATOM      9  C   UNL     1       1.632  -0.314   0.204  0.00  0.00    +0.000 C 
BRANCH   9  10
ATOM     10  C   UNL     1       2.726   0.609  -0.179  0.00  0.00    +0.000 C 
ATOM     11  O   UNL     1       2.650   1.265  -1.254  0.00  0.00    +0.000 OA
BRANCH  10  12
ATOM     12  O   UNL     1       3.854   0.734   0.640  0.00  0.00    +0.000 OA
BRANCH  12  13
ATOM     13  C   UNL     1       4.940   1.599   0.325  0.00  0.00    +0.000 C 
ATOM     14  C   UNL     1       5.998   1.504   1.413  0.00  0.00    +0.000 C 
ENDBRANCH  12  13
ENDBRANCH  10  12
ENDBRANCH   9  10
ENDBRANCH   1   4
BRANCH   1  15
ATOM     15  N   UNL     1      -2.038   1.607  -0.719  0.00  0.00    +0.000 N 
ATOM     16  H   UNL     1      -2.041   2.050  -1.665  0.00  0.00    +0.000 HD
BRANCH  15  17
ATOM     17  C   UNL     1      -3.207   0.898  -0.283  0.00  0.00    +0.000 A 
ATOM     18  C   UNL     1      -3.972   0.154  -1.204  0.00  0.00    +0.000 A 
ATOM     19 CL   UNL     1      -3.501   0.028  -2.894  0.00  0.00    +0.000 Cl
ATOM     20  C   UNL     1      -5.112  -0.536  -0.772  0.00  0.00    +0.000 A 
ATOM     21  C   UNL     1      -5.503  -0.479   0.568  0.00  0.00    +0.000 A 
ATOM     22  F   UNL     1      -6.608  -1.147   0.980  0.00  0.00    +0.000 F 
ATOM     23  C   UNL     1      -4.761   0.273   1.480  0.00  0.00    +0.000 A 
ATOM     24  C   UNL     1      -3.621   0.963   1.058  0.00  0.00    +0.000 A 
ENDBRANCH  15  17
ENDBRANCH   1  15
TORSDOF 6
