REMARK  Name = C:\Users\Maximilian\Desktop\Conformers\converted_pdb\conformers_pdb\Resatorvid_conf_25.pdb
REMARK  7 active torsions:
REMARK  status: ('A' for Active; 'I' for Inactive)
REMARK    1  A    between atoms: S_1  and  N_4
REMARK    2  A    between atoms: S_1  and  C_14
REMARK    3  A    between atoms: N_4  and  C_6
REMARK    4  A    between atoms: C_19  and  C_20
REMARK    5  A    between atoms: C_20  and  O_22
REMARK    6  A    between atoms: O_22  and  C_23
REMARK    7  A    between atoms: C_23  and  C_24
REMARK                            x       y       z     vdW  Elec       q    Type
REMARK                         _______ _______ _______ _____ _____    ______ ____
ROOT
ATOM      1  S   UNL     1       0.209   0.777  -1.701  0.00  0.00    +0.000 S 
ATOM      2  O   UNL     1      -0.530   2.047  -1.391  0.00  0.00    +0.000 OA
ATOM      3  O   UNL     1      -0.350   0.191  -2.968  0.00  0.00    +0.000 OA
ENDROOT
BRANCH   1   4
ATOM      4  C   UNL     1       0.033  -0.436  -0.379  0.00  0.00    +0.000 C 
ATOM      5  C   UNL     1       1.049  -1.581  -0.619  0.00  0.00    +0.000 C 
ATOM      6  C   UNL     1       0.601  -2.893   0.017  0.00  0.00    +0.000 C 
ATOM      7  C   UNL     1      -0.753  -3.287  -0.566  0.00  0.00    +0.000 C 
ATOM      8  C   UNL     1      -1.761  -2.199  -0.340  0.00  0.00    +0.000 C 
ATOM      9  C   UNL     1      -1.422  -0.898  -0.259  0.00  0.00    +0.000 C 
BRANCH   9  10
ATOM     10  C   UNL     1      -2.470   0.082   0.112  0.00  0.00    +0.000 C 
ATOM     11  O   UNL     1      -2.146   1.179   0.646  0.00  0.00    +0.000 OA
BRANCH  10  12
ATOM     12  O   UNL     1      -3.821  -0.216  -0.114  0.00  0.00    +0.000 OA
BRANCH  12  13
ATOM     13  C   UNL     1      -4.892   0.637   0.285  0.00  0.00    +0.000 C 
ATOM     14  C   UNL     1      -5.129   0.533   1.787  0.00  0.00    +0.000 C 
ENDBRANCH  12  13
ENDBRANCH  10  12
ENDBRANCH   9  10
ENDBRANCH   1   4
BRANCH   1  15
ATOM     15  N   UNL     1       1.888   1.140  -1.950  0.00  0.00    +0.000 N 
ATOM     16  H   UNL     1       2.260   0.994  -2.913  0.00  0.00    +0.000 HD
BRANCH  15  17
ATOM     17  C   UNL     1       2.788   1.470  -0.876  0.00  0.00    +0.000 A 
ATOM     18  C   UNL     1       4.162   1.158  -0.975  0.00  0.00    +0.000 A 
ATOM     19 CL   UNL     1       4.821   0.325  -2.378  0.00  0.00    +0.000 Cl
ATOM     20  C   UNL     1       5.031   1.479   0.075  0.00  0.00    +0.000 A 
ATOM     21  C   UNL     1       4.550   2.113   1.221  0.00  0.00    +0.000 A 
ATOM     22  F   UNL     1       5.398   2.419   2.235  0.00  0.00    +0.000 F 
ATOM     23  C   UNL     1       3.196   2.433   1.324  0.00  0.00    +0.000 A 
ATOM     24  C   UNL     1       2.320   2.116   0.283  0.00  0.00    +0.000 A 
ENDBRANCH  15  17
ENDBRANCH   1  15
TORSDOF 6
