REMARK  Name = C:\Users\Maximilian\Desktop\Conformers\converted_pdb\conformers_pdb\Resatorvid_conf_32.pdb
REMARK  7 active torsions:
REMARK  status: ('A' for Active; 'I' for Inactive)
REMARK    1  A    between atoms: S_1  and  N_4
REMARK    2  A    between atoms: S_1  and  C_14
REMARK    3  A    between atoms: N_4  and  C_6
REMARK    4  A    between atoms: C_19  and  C_20
REMARK    5  A    between atoms: C_20  and  O_22
REMARK    6  A    between atoms: O_22  and  C_23
REMARK    7  A    between atoms: C_23  and  C_24
REMARK                            x       y       z     vdW  Elec       q    Type
REMARK                         _______ _______ _______ _____ _____    ______ ____
ROOT
ATOM      1  S   UNL     1       0.907   1.891  -0.042  0.00  0.00    +0.000 S 
ATOM      2  O   UNL     1       0.546   3.017   0.887  0.00  0.00    +0.000 OA
ATOM      3  O   UNL     1       1.868   2.418  -1.072  0.00  0.00    +0.000 OA
ENDROOT
BRANCH   1   4
ATOM      4  C   UNL     1      -0.590   1.249  -0.817  0.00  0.00    +0.000 C 
ATOM      5  C   UNL     1      -1.036   2.128  -2.000  0.00  0.00    +0.000 C 
ATOM      6  C   UNL     1      -1.680   3.426  -1.512  0.00  0.00    +0.000 C 
ATOM      7  C   UNL     1      -2.897   3.124  -0.634  0.00  0.00    +0.000 C 
ATOM      8  C   UNL     1      -2.661   2.013   0.357  0.00  0.00    +0.000 C 
ATOM      9  C   UNL     1      -1.684   1.092   0.226  0.00  0.00    +0.000 C 
BRANCH   9  10
ATOM     10  C   UNL     1      -1.627  -0.065   1.153  0.00  0.00    +0.000 C 
ATOM     11  O   UNL     1      -2.368  -0.103   2.175  0.00  0.00    +0.000 OA
BRANCH  10  12
ATOM     12  O   UNL     1      -0.749  -1.122   0.885  0.00  0.00    +0.000 OA
BRANCH  12  13
ATOM     13  C   UNL     1      -0.662  -2.299   1.686  0.00  0.00    +0.000 C 
ATOM     14  C   UNL     1      -1.851  -3.217   1.425  0.00  0.00    +0.000 C 
ENDBRANCH  12  13
ENDBRANCH  10  12
ENDBRANCH   9  10
ENDBRANCH   1   4
BRANCH   1  15
ATOM     15  N   UNL     1       1.684   0.648   0.889  0.00  0.00    +0.000 N 
ATOM     16  H   UNL     1       1.649   0.777   1.923  0.00  0.00    +0.000 HD
BRANCH  15  17
ATOM     17  C   UNL     1       2.322  -0.521   0.330  0.00  0.00    +0.000 A 
ATOM     18  C   UNL     1       2.890  -1.497   1.182  0.00  0.00    +0.000 A 
ATOM     19 CL   UNL     1       2.855  -1.341   2.936  0.00  0.00    +0.000 Cl
ATOM     20  C   UNL     1       3.493  -2.639   0.641  0.00  0.00    +0.000 A 
ATOM     21  C   UNL     1       3.543  -2.824  -0.740  0.00  0.00    +0.000 A 
ATOM     22  F   UNL     1       4.128  -3.934  -1.256  0.00  0.00    +0.000 F 
ATOM     23  C   UNL     1       2.991  -1.868  -1.591  0.00  0.00    +0.000 A 
ATOM     24  C   UNL     1       2.386  -0.724  -1.064  0.00  0.00    +0.000 A 
ENDBRANCH  15  17
ENDBRANCH   1  15
TORSDOF 6
