REMARK  Name = C:\Users\Maximilian\Desktop\Conformers\converted_pdb\conformers_pdb\Resatorvid_conf_35.pdb
REMARK  7 active torsions:
REMARK  status: ('A' for Active; 'I' for Inactive)
REMARK    1  A    between atoms: S_1  and  N_4
REMARK    2  A    between atoms: S_1  and  C_14
REMARK    3  A    between atoms: N_4  and  C_6
REMARK    4  A    between atoms: C_19  and  C_20
REMARK    5  A    between atoms: C_20  and  O_22
REMARK    6  A    between atoms: O_22  and  C_23
REMARK    7  A    between atoms: C_23  and  C_24
REMARK                            x       y       z     vdW  Elec       q    Type
REMARK                         _______ _______ _______ _____ _____    ______ ____
ROOT
ATOM      1  S   UNL     1      -0.100  -0.193   2.367  0.00  0.00    +0.000 S 
ATOM      2  O   UNL     1       0.777  -0.934   3.337  0.00  0.00    +0.000 OA
ATOM      3  O   UNL     1      -1.168   0.513   3.154  0.00  0.00    +0.000 OA
ENDROOT
BRANCH   1   4
ATOM      4  C   UNL     1      -0.885  -1.334   1.210  0.00  0.00    +0.000 C 
ATOM      5  C   UNL     1       0.026  -2.569   0.983  0.00  0.00    +0.000 C 
ATOM      6  C   UNL     1      -0.184  -3.205  -0.388  0.00  0.00    +0.000 C 
ATOM      7  C   UNL     1       0.069  -2.155  -1.465  0.00  0.00    +0.000 C 
ATOM      8  C   UNL     1      -0.851  -0.986  -1.280  0.00  0.00    +0.000 C 
ATOM      9  C   UNL     1      -1.295  -0.599  -0.068  0.00  0.00    +0.000 C 
BRANCH   9  10
ATOM     10  C   UNL     1      -2.291   0.497   0.011  0.00  0.00    +0.000 C 
ATOM     11  O   UNL     1      -2.997   0.630   1.047  0.00  0.00    +0.000 OA
BRANCH  10  12
ATOM     12  O   UNL     1      -2.463   1.370  -1.072  0.00  0.00    +0.000 OA
BRANCH  12  13
ATOM     13  C   UNL     1      -3.363   2.476  -1.053  0.00  0.00    +0.000 C 
ATOM     14  C   UNL     1      -2.799   3.617  -0.214  0.00  0.00    +0.000 C 
ENDBRANCH  12  13
ENDBRANCH  10  12
ENDBRANCH   9  10
ENDBRANCH   1   4
BRANCH   1  15
ATOM     15  N   UNL     1       0.830   0.998   1.510  0.00  0.00    +0.000 N 
ATOM     16  H   UNL     1       0.438   1.966   1.481  0.00  0.00    +0.000 HD
BRANCH  15  17
ATOM     17  C   UNL     1       1.887   0.644   0.605  0.00  0.00    +0.000 A 
ATOM     18  C   UNL     1       1.957   1.228  -0.677  0.00  0.00    +0.000 A 
ATOM     19 CL   UNL     1       0.754   2.386  -1.227  0.00  0.00    +0.000 Cl
ATOM     20  C   UNL     1       2.986   0.867  -1.556  0.00  0.00    +0.000 A 
ATOM     21  C   UNL     1       3.955  -0.059  -1.164  0.00  0.00    +0.000 A 
ATOM     22  F   UNL     1       4.947  -0.406  -2.020  0.00  0.00    +0.000 F 
ATOM     23  C   UNL     1       3.906  -0.621   0.113  0.00  0.00    +0.000 A 
ATOM     24  C   UNL     1       2.883  -0.266   0.996  0.00  0.00    +0.000 A 
ENDBRANCH  15  17
ENDBRANCH   1  15
TORSDOF 6
