REMARK  Name = C:\Users\Maximilian\Desktop\Conformers\converted_pdb\conformers_pdb\Resatorvid_conf_14.pdb
REMARK  7 active torsions:
REMARK  status: ('A' for Active; 'I' for Inactive)
REMARK    1  A    between atoms: S_1  and  N_4
REMARK    2  A    between atoms: S_1  and  C_14
REMARK    3  A    between atoms: N_4  and  C_6
REMARK    4  A    between atoms: C_19  and  C_20
REMARK    5  A    between atoms: C_20  and  O_22
REMARK    6  A    between atoms: O_22  and  C_23
REMARK    7  A    between atoms: C_23  and  C_24
REMARK                            x       y       z     vdW  Elec       q    Type
REMARK                         _______ _______ _______ _____ _____    ______ ____
ROOT
ATOM      1  S   UNL     1       0.028  -2.234  -0.115  0.00  0.00    +0.000 S 
ATOM      2  O   UNL     1      -0.943  -3.254   0.410  0.00  0.00    +0.000 OA
ATOM      3  O   UNL     1       1.263  -2.963  -0.565  0.00  0.00    +0.000 OA
ENDROOT
BRANCH   1   4
ATOM      4  C   UNL     1       0.500  -1.053   1.172  0.00  0.00    +0.000 C 
ATOM      5  C   UNL     1      -0.514  -1.112   2.342  0.00  0.00    +0.000 C 
ATOM      6  C   UNL     1      -0.508   0.168   3.171  0.00  0.00    +0.000 C 
ATOM      7  C   UNL     1      -0.857   1.345   2.265  0.00  0.00    +0.000 C 
ATOM      8  C   UNL     1       0.102   1.430   1.115  0.00  0.00    +0.000 C 
ATOM      9  C   UNL     1       0.720   0.349   0.595  0.00  0.00    +0.000 C 
BRANCH   9  10
ATOM     10  C   UNL     1       1.744   0.544  -0.464  0.00  0.00    +0.000 C 
ATOM     11  O   UNL     1       1.868   1.665  -1.035  0.00  0.00    +0.000 OA
BRANCH  10  12
ATOM     12  O   UNL     1       2.580  -0.518  -0.826  0.00  0.00    +0.000 OA
BRANCH  12  13
ATOM     13  C   UNL     1       3.590  -0.422  -1.829  0.00  0.00    +0.000 C 
ATOM     14  C   UNL     1       4.809   0.321  -1.296  0.00  0.00    +0.000 C 
ENDBRANCH  12  13
ENDBRANCH  10  12
ENDBRANCH   9  10
ENDBRANCH   1   4
BRANCH   1  15
ATOM     15  N   UNL     1      -0.662  -1.426  -1.492  0.00  0.00    +0.000 N 
ATOM     16  H   UNL     1      -0.131  -1.497  -2.388  0.00  0.00    +0.000 HD
BRANCH  15  17
ATOM     17  C   UNL     1      -1.746  -0.488  -1.383  0.00  0.00    +0.000 A 
ATOM     18  C   UNL     1      -1.759   0.686  -2.168  0.00  0.00    +0.000 A 
ATOM     19 CL   UNL     1      -0.466   1.049  -3.306  0.00  0.00    +0.000 Cl
ATOM     20  C   UNL     1      -2.805   1.607  -2.034  0.00  0.00    +0.000 A 
ATOM     21  C   UNL     1      -3.849   1.363  -1.138  0.00  0.00    +0.000 A 
ATOM     22  F   UNL     1      -4.859   2.259  -1.013  0.00  0.00    +0.000 F 
ATOM     23  C   UNL     1      -3.858   0.190  -0.381  0.00  0.00    +0.000 A 
ATOM     24  C   UNL     1      -2.818  -0.734  -0.507  0.00  0.00    +0.000 A 
ENDBRANCH  15  17
ENDBRANCH   1  15
TORSDOF 6
