REMARK  Name = C:\Users\Maximilian\Desktop\Conformers\converted_pdb\conformers_pdb\Resatorvid_conf_31.pdb
REMARK  7 active torsions:
REMARK  status: ('A' for Active; 'I' for Inactive)
REMARK    1  A    between atoms: S_1  and  N_4
REMARK    2  A    between atoms: S_1  and  C_14
REMARK    3  A    between atoms: N_4  and  C_6
REMARK    4  A    between atoms: C_19  and  C_20
REMARK    5  A    between atoms: C_20  and  O_22
REMARK    6  A    between atoms: O_22  and  C_23
REMARK    7  A    between atoms: C_23  and  C_24
REMARK                            x       y       z     vdW  Elec       q    Type
REMARK                         _______ _______ _______ _____ _____    ______ ____
ROOT
ATOM      1  S   UNL     1       1.236  -0.869   2.315  0.00  0.00    +0.000 S 
ATOM      2  O   UNL     1       2.014  -1.755   3.247  0.00  0.00    +0.000 OA
ATOM      3  O   UNL     1       1.048   0.459   2.990  0.00  0.00    +0.000 OA
ENDROOT
BRANCH   1   4
ATOM      4  C   UNL     1      -0.396  -1.577   2.002  0.00  0.00    +0.000 C 
ATOM      5  C   UNL     1      -0.359  -3.118   1.942  0.00  0.00    +0.000 C 
ATOM      6  C   UNL     1       0.105  -3.613   0.575  0.00  0.00    +0.000 C 
ATOM      7  C   UNL     1      -0.842  -3.111  -0.515  0.00  0.00    +0.000 C 
ATOM      8  C   UNL     1      -1.157  -1.645  -0.385  0.00  0.00    +0.000 C 
ATOM      9  C   UNL     1      -1.026  -0.953   0.765  0.00  0.00    +0.000 C 
BRANCH   9  10
ATOM     10  C   UNL     1      -1.449   0.469   0.807  0.00  0.00    +0.000 C 
ATOM     11  O   UNL     1      -1.526   1.070   1.914  0.00  0.00    +0.000 OA
BRANCH  10  12
ATOM     12  O   UNL     1      -1.753   1.147  -0.378  0.00  0.00    +0.000 OA
BRANCH  12  13
ATOM     13  C   UNL     1      -2.071   2.534  -0.411  0.00  0.00    +0.000 C 
ATOM     14  C   UNL     1      -2.364   2.956  -1.841  0.00  0.00    +0.000 C 
ENDBRANCH  12  13
ENDBRANCH  10  12
ENDBRANCH   9  10
ENDBRANCH   1   4
BRANCH   1  15
ATOM     15  N   UNL     1       2.155  -0.662   0.853  0.00  0.00    +0.000 N 
ATOM     16  H   UNL     1       2.627  -1.504   0.456  0.00  0.00    +0.000 HD
BRANCH  15  17
ATOM     17  C   UNL     1       1.982   0.477   0.003  0.00  0.00    +0.000 A 
ATOM     18  C   UNL     1       2.400   1.764   0.400  0.00  0.00    +0.000 A 
ATOM     19 CL   UNL     1       3.312   2.022   1.881  0.00  0.00    +0.000 Cl
ATOM     20  C   UNL     1       2.179   2.858  -0.446  0.00  0.00    +0.000 A 
ATOM     21  C   UNL     1       1.576   2.676  -1.693  0.00  0.00    +0.000 A 
ATOM     22  F   UNL     1       1.366   3.740  -2.507  0.00  0.00    +0.000 F 
ATOM     23  C   UNL     1       1.218   1.394  -2.114  0.00  0.00    +0.000 A 
ATOM     24  C   UNL     1       1.433   0.298  -1.275  0.00  0.00    +0.000 A 
ENDBRANCH  15  17
ENDBRANCH   1  15
TORSDOF 6
