REMARK  Name = C:\Users\Maximilian\Desktop\Conformers\converted_pdb\conformers_pdb\Resatorvid_conf_37.pdb
REMARK  7 active torsions:
REMARK  status: ('A' for Active; 'I' for Inactive)
REMARK    1  A    between atoms: S_1  and  N_4
REMARK    2  A    between atoms: S_1  and  C_14
REMARK    3  A    between atoms: N_4  and  C_6
REMARK    4  A    between atoms: C_19  and  C_20
REMARK    5  A    between atoms: C_20  and  O_22
REMARK    6  A    between atoms: O_22  and  C_23
REMARK    7  A    between atoms: C_23  and  C_24
REMARK                            x       y       z     vdW  Elec       q    Type
REMARK                         _______ _______ _______ _____ _____    ______ ____
ROOT
ATOM      1  S   UNL     1      -0.357   1.390   1.369  0.00  0.00    +0.000 S 
ATOM      2  O   UNL     1      -1.307   2.154   0.490  0.00  0.00    +0.000 OA
ATOM      3  O   UNL     1      -0.396   2.001   2.742  0.00  0.00    +0.000 OA
ENDROOT
BRANCH   1   4
ATOM      4  C   UNL     1       1.327   1.470   0.726  0.00  0.00    +0.000 C 
ATOM      5  C   UNL     1       1.963   2.851   0.975  0.00  0.00    +0.000 C 
ATOM      6  C   UNL     1       1.411   3.899   0.008  0.00  0.00    +0.000 C 
ATOM      7  C   UNL     1       1.667   3.484  -1.443  0.00  0.00    +0.000 C 
ATOM      8  C   UNL     1       1.407   2.024  -1.710  0.00  0.00    +0.000 C 
ATOM      9  C   UNL     1       1.364   1.083  -0.743  0.00  0.00    +0.000 C 
BRANCH   9  10
ATOM     10  C   UNL     1       1.309  -0.354  -1.110  0.00  0.00    +0.000 C 
ATOM     11  O   UNL     1       1.233  -0.704  -2.321  0.00  0.00    +0.000 OA
BRANCH  10  12
ATOM     12  O   UNL     1       1.335  -1.327  -0.105  0.00  0.00    +0.000 OA
BRANCH  12  13
ATOM     13  C   UNL     1       1.193  -2.717  -0.376  0.00  0.00    +0.000 C 
ATOM     14  C   UNL     1       1.223  -3.495   0.929  0.00  0.00    +0.000 C 
ENDBRANCH  12  13
ENDBRANCH  10  12
ENDBRANCH   9  10
ENDBRANCH   1   4
BRANCH   1  15
ATOM     15  N   UNL     1      -0.862  -0.267   1.508  0.00  0.00    +0.000 N 
ATOM     16  H   UNL     1      -0.486  -0.785   2.332  0.00  0.00    +0.000 HD
BRANCH  15  17
ATOM     17  C   UNL     1      -1.837  -0.902   0.658  0.00  0.00    +0.000 A 
ATOM     18  C   UNL     1      -2.604  -1.984   1.145  0.00  0.00    +0.000 A 
ATOM     19 CL   UNL     1      -2.467  -2.540   2.809  0.00  0.00    +0.000 Cl
ATOM     20  C   UNL     1      -3.520  -2.631   0.306  0.00  0.00    +0.000 A 
ATOM     21  C   UNL     1      -3.677  -2.219  -1.018  0.00  0.00    +0.000 A 
ATOM     22  F   UNL     1      -4.563  -2.853  -1.825  0.00  0.00    +0.000 F 
ATOM     23  C   UNL     1      -2.918  -1.158  -1.511  0.00  0.00    +0.000 A 
ATOM     24  C   UNL     1      -2.003  -0.504  -0.683  0.00  0.00    +0.000 A 
ENDBRANCH  15  17
ENDBRANCH   1  15
TORSDOF 6
