REMARK  Name = C:\Users\Maximilian\Desktop\Conformers\converted_pdb\conformers_pdb\Resatorvid_conf_27.pdb
REMARK  7 active torsions:
REMARK  status: ('A' for Active; 'I' for Inactive)
REMARK    1  A    between atoms: S_1  and  N_4
REMARK    2  A    between atoms: S_1  and  C_14
REMARK    3  A    between atoms: N_4  and  C_6
REMARK    4  A    between atoms: C_19  and  C_20
REMARK    5  A    between atoms: C_20  and  O_22
REMARK    6  A    between atoms: O_22  and  C_23
REMARK    7  A    between atoms: C_23  and  C_24
REMARK                            x       y       z     vdW  Elec       q    Type
REMARK                         _______ _______ _______ _____ _____    ______ ____
ROOT
ATOM      1  S   UNL     1       0.966  -1.667  -0.039  0.00  0.00    +0.000 S 
ATOM      2  O   UNL     1       0.383  -2.521  -1.130  0.00  0.00    +0.000 OA
ATOM      3  O   UNL     1       1.997  -2.477   0.697  0.00  0.00    +0.000 OA
ENDROOT
BRANCH   1   4
ATOM      4  C   UNL     1      -0.354  -1.128   1.067  0.00  0.00    +0.000 C 
ATOM      5  C   UNL     1      -0.677  -2.199   2.125  0.00  0.00    +0.000 C 
ATOM      6  C   UNL     1      -1.473  -3.352   1.515  0.00  0.00    +0.000 C 
ATOM      7  C   UNL     1      -2.787  -2.838   0.923  0.00  0.00    +0.000 C 
ATOM      8  C   UNL     1      -2.627  -1.572   0.122  0.00  0.00    +0.000 C 
ATOM      9  C   UNL     1      -1.578  -0.734   0.255  0.00  0.00    +0.000 C 
BRANCH   9  10
ATOM     10  C   UNL     1      -1.579   0.559  -0.471  0.00  0.00    +0.000 C 
ATOM     11  O   UNL     1      -0.690   1.418  -0.224  0.00  0.00    +0.000 OA
BRANCH  10  12
ATOM     12  O   UNL     1      -2.571   0.832  -1.423  0.00  0.00    +0.000 OA
BRANCH  12  13
ATOM     13  C   UNL     1      -2.586   2.010  -2.225  0.00  0.00    +0.000 C 
ATOM     14  C   UNL     1      -1.538   1.921  -3.328  0.00  0.00    +0.000 C 
ENDBRANCH  12  13
ENDBRANCH  10  12
ENDBRANCH   9  10
ENDBRANCH   1   4
BRANCH   1  15
ATOM     15  N   UNL     1       1.733  -0.292  -0.773  0.00  0.00    +0.000 N 
ATOM     16  H   UNL     1       1.626  -0.216  -1.807  0.00  0.00    +0.000 HD
BRANCH  15  17
ATOM     17  C   UNL     1       2.424   0.744  -0.043  0.00  0.00    +0.000 A 
ATOM     18  C   UNL     1       2.820   1.934  -0.697  0.00  0.00    +0.000 A 
ATOM     19 CL   UNL     1       2.487   2.216  -2.402  0.00  0.00    +0.000 Cl
ATOM     20  C   UNL     1       3.489   2.939   0.013  0.00  0.00    +0.000 A 
ATOM     21  C   UNL     1       3.773   2.776   1.369  0.00  0.00    +0.000 A 
ATOM     22  F   UNL     1       4.420   3.755   2.049  0.00  0.00    +0.000 F 
ATOM     23  C   UNL     1       3.392   1.606   2.024  0.00  0.00    +0.000 A 
ATOM     24  C   UNL     1       2.725   0.596   1.327  0.00  0.00    +0.000 A 
ENDBRANCH  15  17
ENDBRANCH   1  15
TORSDOF 6
