REMARK  Name = C:\Users\Maximilian\Desktop\Conformers\converted_pdb\conformers_pdb\Resatorvid_conf_28.pdb
REMARK  7 active torsions:
REMARK  status: ('A' for Active; 'I' for Inactive)
REMARK    1  A    between atoms: S_1  and  N_4
REMARK    2  A    between atoms: S_1  and  C_14
REMARK    3  A    between atoms: N_4  and  C_6
REMARK    4  A    between atoms: C_19  and  C_20
REMARK    5  A    between atoms: C_20  and  O_22
REMARK    6  A    between atoms: O_22  and  C_23
REMARK    7  A    between atoms: C_23  and  C_24
REMARK                            x       y       z     vdW  Elec       q    Type
REMARK                         _______ _______ _______ _____ _____    ______ ____
ROOT
ATOM      1  S   UNL     1      -0.705  -0.696   0.145  0.00  0.00    +0.000 S 
ATOM      2  O   UNL     1      -0.517  -2.153  -0.168  0.00  0.00    +0.000 OA
ATOM      3  O   UNL     1      -0.974   0.049  -1.134  0.00  0.00    +0.000 OA
ENDROOT
BRANCH   1   4
ATOM      4  C   UNL     1       0.788  -0.043   0.913  0.00  0.00    +0.000 C 
ATOM      5  C   UNL     1       0.537   1.314   1.600  0.00  0.00    +0.000 C 
ATOM      6  C   UNL     1       0.423   2.444   0.578  0.00  0.00    +0.000 C 
ATOM      7  C   UNL     1       1.700   2.541  -0.259  0.00  0.00    +0.000 C 
ATOM      8  C   UNL     1       2.225   1.203  -0.712  0.00  0.00    +0.000 C 
ATOM      9  C   UNL     1       1.905   0.036  -0.117  0.00  0.00    +0.000 C 
BRANCH   9  10
ATOM     10  C   UNL     1       2.605  -1.207  -0.524  0.00  0.00    +0.000 C 
ATOM     11  O   UNL     1       2.396  -2.280   0.106  0.00  0.00    +0.000 OA
BRANCH  10  12
ATOM     12  O   UNL     1       3.497  -1.192  -1.604  0.00  0.00    +0.000 OA
BRANCH  12  13
ATOM     13  C   UNL     1       4.278  -2.320  -1.997  0.00  0.00    +0.000 C 
ATOM     14  C   UNL     1       5.445  -2.524  -1.037  0.00  0.00    +0.000 C 
ENDBRANCH  12  13
ENDBRANCH  10  12
ENDBRANCH   9  10
ENDBRANCH   1   4
BRANCH   1  15
ATOM     15  N   UNL     1      -2.054  -0.525   1.223  0.00  0.00    +0.000 N 
ATOM     16  H   UNL     1      -1.861  -0.568   2.248  0.00  0.00    +0.000 HD
BRANCH  15  17
ATOM     17  C   UNL     1      -3.386  -0.248   0.762  0.00  0.00    +0.000 A 
ATOM     18  C   UNL     1      -4.253   0.556   1.530  0.00  0.00    +0.000 A 
ATOM     19 CL   UNL     1      -3.726   1.289   3.041  0.00  0.00    +0.000 Cl
ATOM     20  C   UNL     1      -5.553   0.813   1.078  0.00  0.00    +0.000 A 
ATOM     21  C   UNL     1      -6.002   0.268  -0.127  0.00  0.00    +0.000 A 
ATOM     22  F   UNL     1      -7.262   0.520  -0.558  0.00  0.00    +0.000 F 
ATOM     23  C   UNL     1      -5.154  -0.542  -0.885  0.00  0.00    +0.000 A 
ATOM     24  C   UNL     1      -3.854  -0.801  -0.444  0.00  0.00    +0.000 A 
ENDBRANCH  15  17
ENDBRANCH   1  15
TORSDOF 6
