REMARK  Name = C:\Users\Maximilian\Desktop\Conformers\converted_pdb\conformers_pdb\Resatorvid_conf_29.pdb
REMARK  7 active torsions:
REMARK  status: ('A' for Active; 'I' for Inactive)
REMARK    1  A    between atoms: S_1  and  N_4
REMARK    2  A    between atoms: S_1  and  C_14
REMARK    3  A    between atoms: N_4  and  C_6
REMARK    4  A    between atoms: C_19  and  C_20
REMARK    5  A    between atoms: C_20  and  O_22
REMARK    6  A    between atoms: O_22  and  C_23
REMARK    7  A    between atoms: C_23  and  C_24
REMARK                            x       y       z     vdW  Elec       q    Type
REMARK                         _______ _______ _______ _____ _____    ______ ____
ROOT
ATOM      1  S   UNL     1       0.155   2.054   1.632  0.00  0.00    +0.000 S 
ATOM      2  O   UNL     1       1.184   2.446   2.656  0.00  0.00    +0.000 OA
ATOM      3  O   UNL     1      -0.992   3.019   1.736  0.00  0.00    +0.000 OA
ENDROOT
BRANCH   1   4
ATOM      4  C   UNL     1      -0.466   0.386   1.941  0.00  0.00    +0.000 C 
ATOM      5  C   UNL     1       0.577  -0.428   2.750  0.00  0.00    +0.000 C 
ATOM      6  C   UNL     1       0.440  -1.931   2.526  0.00  0.00    +0.000 C 
ATOM      7  C   UNL     1       0.595  -2.224   1.037  0.00  0.00    +0.000 C 
ATOM      8  C   UNL     1      -0.429  -1.469   0.245  0.00  0.00    +0.000 C 
ATOM      9  C   UNL     1      -0.919  -0.277   0.637  0.00  0.00    +0.000 C 
BRANCH   9  10
ATOM     10  C   UNL     1      -2.014   0.338  -0.153  0.00  0.00    +0.000 C 
ATOM     11  O   UNL     1      -2.688   1.286   0.335  0.00  0.00    +0.000 OA
BRANCH  10  12
ATOM     12  O   UNL     1      -2.306  -0.138  -1.438  0.00  0.00    +0.000 OA
BRANCH  12  13
ATOM     13  C   UNL     1      -3.360   0.377  -2.249  0.00  0.00    +0.000 C 
ATOM     14  C   UNL     1      -4.710  -0.140  -1.769  0.00  0.00    +0.000 C 
ENDBRANCH  12  13
ENDBRANCH  10  12
ENDBRANCH   9  10
ENDBRANCH   1   4
BRANCH   1  15
ATOM     15  N   UNL     1       0.833   2.178   0.037  0.00  0.00    +0.000 N 
ATOM     16  H   UNL     1       0.323   2.783  -0.644  0.00  0.00    +0.000 HD
BRANCH  15  17
ATOM     17  C   UNL     1       1.849   1.283  -0.444  0.00  0.00    +0.000 A 
ATOM     18  C   UNL     1       1.760   0.728  -1.738  0.00  0.00    +0.000 A 
ATOM     19 CL   UNL     1       0.415   1.099  -2.808  0.00  0.00    +0.000 Cl
ATOM     20  C   UNL     1       2.744  -0.160  -2.188  0.00  0.00    +0.000 A 
ATOM     21  C   UNL     1       3.827  -0.488  -1.368  0.00  0.00    +0.000 A 
ATOM     22  F   UNL     1       4.776  -1.349  -1.810  0.00  0.00    +0.000 F 
ATOM     23  C   UNL     1       3.936   0.081  -0.098  0.00  0.00    +0.000 A 
ATOM     24  C   UNL     1       2.958   0.967   0.360  0.00  0.00    +0.000 A 
ENDBRANCH  15  17
ENDBRANCH   1  15
TORSDOF 6
