REMARK  Name = C:\Users\Maximilian\Desktop\Conformers\converted_pdb\conformers_pdb\Resatorvid_conf_2.pdb
REMARK  7 active torsions:
REMARK  status: ('A' for Active; 'I' for Inactive)
REMARK    1  A    between atoms: S_1  and  N_4
REMARK    2  A    between atoms: S_1  and  C_14
REMARK    3  A    between atoms: N_4  and  C_6
REMARK    4  A    between atoms: C_19  and  C_20
REMARK    5  A    between atoms: C_20  and  O_22
REMARK    6  A    between atoms: O_22  and  C_23
REMARK    7  A    between atoms: C_23  and  C_24
REMARK                            x       y       z     vdW  Elec       q    Type
REMARK                         _______ _______ _______ _____ _____    ______ ____
ROOT
ATOM      1  S   UNL     1      -0.400  -0.436  -1.360  0.00  0.00    +0.000 S 
ATOM      2  O   UNL     1       0.010  -1.881  -1.305  0.00  0.00    +0.000 OA
ATOM      3  O   UNL     1       0.372   0.230  -2.465  0.00  0.00    +0.000 OA
ENDROOT
BRANCH   1   4
ATOM      4  C   UNL     1      -0.030   0.379   0.206  0.00  0.00    +0.000 C 
ATOM      5  C   UNL     1      -0.767   1.726   0.338  0.00  0.00    +0.000 C 
ATOM      6  C   UNL     1      -0.104   2.811  -0.508  0.00  0.00    +0.000 C 
ATOM      7  C   UNL     1       1.354   3.003  -0.084  0.00  0.00    +0.000 C 
ATOM      8  C   UNL     1       2.090   1.706   0.131  0.00  0.00    +0.000 C 
ATOM      9  C   UNL     1       1.475   0.530   0.368  0.00  0.00    +0.000 C 
BRANCH   9  10
ATOM     10  C   UNL     1       2.286  -0.660   0.727  0.00  0.00    +0.000 C 
ATOM     11  O   UNL     1       1.714  -1.738   1.050  0.00  0.00    +0.000 OA
BRANCH  10  12
ATOM     12  O   UNL     1       3.684  -0.589   0.716  0.00  0.00    +0.000 OA
BRANCH  12  13
ATOM     13  C   UNL     1       4.513  -1.698   1.050  0.00  0.00    +0.000 C 
ATOM     14  C   UNL     1       5.974  -1.292   0.938  0.00  0.00    +0.000 C 
ENDBRANCH  12  13
ENDBRANCH  10  12
ENDBRANCH   9  10
ENDBRANCH   1   4
BRANCH   1  15
ATOM     15  N   UNL     1      -2.094  -0.336  -1.726  0.00  0.00    +0.000 N 
ATOM     16  H   UNL     1      -2.343   0.124  -2.629  0.00  0.00    +0.000 HD
BRANCH  15  17
ATOM     17  C   UNL     1      -3.135  -0.722  -0.807  0.00  0.00    +0.000 A 
ATOM     18  C   UNL     1      -4.429  -0.168  -0.923  0.00  0.00    +0.000 A 
ATOM     19 CL   UNL     1      -4.817   1.033  -2.150  0.00  0.00    +0.000 Cl
ATOM     20  C   UNL     1      -5.438  -0.547  -0.029  0.00  0.00    +0.000 A 
ATOM     21  C   UNL     1      -5.176  -1.476   0.979  0.00  0.00    +0.000 A 
ATOM     22  F   UNL     1      -6.158  -1.838   1.841  0.00  0.00    +0.000 F 
ATOM     23  C   UNL     1      -3.902  -2.032   1.099  0.00  0.00    +0.000 A 
ATOM     24  C   UNL     1      -2.888  -1.662   0.212  0.00  0.00    +0.000 A 
ENDBRANCH  15  17
ENDBRANCH   1  15
TORSDOF 6
