REMARK  Name = C:\Users\Maximilian\Desktop\Conformers\converted_pdb\conformers_pdb\Resatorvid_conf_20.pdb
REMARK  7 active torsions:
REMARK  status: ('A' for Active; 'I' for Inactive)
REMARK    1  A    between atoms: S_1  and  N_4
REMARK    2  A    between atoms: S_1  and  C_14
REMARK    3  A    between atoms: N_4  and  C_6
REMARK    4  A    between atoms: C_19  and  C_20
REMARK    5  A    between atoms: C_20  and  O_22
REMARK    6  A    between atoms: O_22  and  C_23
REMARK    7  A    between atoms: C_23  and  C_24
REMARK                            x       y       z     vdW  Elec       q    Type
REMARK                         _______ _______ _______ _____ _____    ______ ____
ROOT
ATOM      1  S   UNL     1       0.458  -0.353  -1.458  0.00  0.00    +0.000 S 
ATOM      2  O   UNL     1       0.235   0.980  -2.115  0.00  0.00    +0.000 OA
ATOM      3  O   UNL     1      -0.387  -1.374  -2.166  0.00  0.00    +0.000 OA
ENDROOT
BRANCH   1   4
ATOM      4  C   UNL     1      -0.019  -0.281   0.280  0.00  0.00    +0.000 C 
ATOM      5  C   UNL     1       0.541  -1.475   1.078  0.00  0.00    +0.000 C 
ATOM      6  C   UNL     1      -0.252  -2.751   0.801  0.00  0.00    +0.000 C 
ATOM      7  C   UNL     1      -1.723  -2.557   1.171  0.00  0.00    +0.000 C 
ATOM      8  C   UNL     1      -2.290  -1.242   0.703  0.00  0.00    +0.000 C 
ATOM      9  C   UNL     1      -1.532  -0.170   0.397  0.00  0.00    +0.000 C 
BRANCH   9  10
ATOM     10  C   UNL     1      -2.187   1.129   0.102  0.00  0.00    +0.000 C 
ATOM     11  O   UNL     1      -1.484   2.160  -0.084  0.00  0.00    +0.000 OA
BRANCH  10  12
ATOM     12  O   UNL     1      -3.582   1.215   0.036  0.00  0.00    +0.000 OA
BRANCH  12  13
ATOM     13  C   UNL     1      -4.265   2.432  -0.245  0.00  0.00    +0.000 C 
ATOM     14  C   UNL     1      -5.765   2.185  -0.246  0.00  0.00    +0.000 C 
ENDBRANCH  12  13
ENDBRANCH  10  12
ENDBRANCH   9  10
ENDBRANCH   1   4
BRANCH   1  15
ATOM     15  N   UNL     1       2.128  -0.800  -1.624  0.00  0.00    +0.000 N 
ATOM     16  H   UNL     1       2.320  -1.657  -2.187  0.00  0.00    +0.000 HD
BRANCH  15  17
ATOM     17  C   UNL     1       3.205  -0.141  -0.930  0.00  0.00    +0.000 A 
ATOM     18  C   UNL     1       4.419  -0.821  -0.688  0.00  0.00    +0.000 A 
ATOM     19 CL   UNL     1       4.656  -2.495  -1.179  0.00  0.00    +0.000 Cl
ATOM     20  C   UNL     1       5.464  -0.177  -0.015  0.00  0.00    +0.000 A 
ATOM     21  C   UNL     1       5.317   1.142   0.418  0.00  0.00    +0.000 A 
ATOM     22  F   UNL     1       6.334   1.759   1.069  0.00  0.00    +0.000 F 
ATOM     23  C   UNL     1       4.124   1.825   0.180  0.00  0.00    +0.000 A 
ATOM     24  C   UNL     1       3.075   1.191  -0.491  0.00  0.00    +0.000 A 
ENDBRANCH  15  17
ENDBRANCH   1  15
TORSDOF 6
