REMARK  6 active torsions:
REMARK  status: ('A' for Active; 'I' for Inactive)
REMARK    1  A    between atoms: S_2  and  N_8 
REMARK    2  A    between atoms: S_2  and  C_9 
REMARK    3  A    between atoms: O_6  and  C_15 
REMARK    4  A    between atoms: O_6  and  C_19 
REMARK    5  A    between atoms: N_8  and  C_16 
REMARK    6  A    between atoms: C_12  and  C_15 
ROOT
HETATM    1  S   UNL     1      -0.229   0.098   0.259  1.00  0.00     0.222 S 
HETATM    2  O   UNL     1      -0.542  -1.209   0.808  1.00  0.00    -0.210 OA
HETATM    3  O   UNL     1       0.055   1.215   1.140  1.00  0.00    -0.210 OA
ENDROOT
BRANCH   1   4
HETATM    4  N   UNL     1       1.016  -0.100  -0.908  1.00  0.00    -0.183 NA
HETATM    5  H   UNL     1       0.849  -0.872  -1.568  1.00  0.00     0.146 HD
BRANCH   4   6
HETATM    6  C   UNL     1       2.379  -0.078  -0.447  1.00  0.00     0.044 A 
HETATM    7  C   UNL     1       3.152  -1.234  -0.430  1.00  0.00     0.059 A 
HETATM    8 CL   UNL     1       2.525  -2.754  -0.957  1.00  0.00    -0.082 Cl
HETATM    9  C   UNL     1       4.470  -1.178   0.024  1.00  0.00     0.068 A 
HETATM   10  C   UNL     1       5.007   0.034   0.459  1.00  0.00     0.118 A 
HETATM   11  F   UNL     1       6.273   0.087   0.893  1.00  0.00    -0.206 F 
HETATM   12  C   UNL     1       4.227   1.190   0.439  1.00  0.00     0.044 A 
HETATM   13  C   UNL     1       2.909   1.134  -0.015  1.00  0.00     0.029 A 
ENDBRANCH   4   6
ENDBRANCH   1   4
BRANCH   1  14
HETATM   14  C   UNL     1      -1.583   0.558  -0.792  1.00  0.00     0.163 C 
HETATM   15  C   UNL     1      -1.237   1.793  -1.633  1.00  0.00     0.027 C 
HETATM   16  C   UNL     1      -1.343   3.086  -0.824  1.00  0.00     0.005 C 
HETATM   17  C   UNL     1      -2.729   3.251  -0.196  1.00  0.00     0.028 C 
HETATM   18  C   UNL     1      -3.298   1.976   0.357  1.00  0.00    -0.012 C 
HETATM   19  C   UNL     1      -2.771   0.771   0.097  1.00  0.00     0.033 C 
BRANCH  19  20
HETATM   20  C   UNL     1      -3.459  -0.393   0.665  1.00  0.00     0.290 C 
HETATM   21  O   UNL     1      -4.088  -0.361   1.710  1.00  0.00    -0.260 OA
BRANCH  20  22
HETATM   22  O   UNL     1      -3.268  -1.454  -0.159  1.00  0.00    -0.318 OA
BRANCH  22  23
HETATM   23  C   UNL     1      -3.884  -2.675   0.263  1.00  0.00     0.174 C 
HETATM   24  C   UNL     1      -3.582  -3.756  -0.752  1.00  0.00     0.034 C 
ENDBRANCH  22  23
ENDBRANCH  20  22
ENDBRANCH  19  20
ENDBRANCH   1  14
TORSDOF 6
