REMARK  Name = C:\Users\Maximilian\Desktop\Conformers\converted_pdb\conformers_pdb\Resatorvid_conf_22.pdb
REMARK  7 active torsions:
REMARK  status: ('A' for Active; 'I' for Inactive)
REMARK    1  A    between atoms: S_1  and  N_4
REMARK    2  A    between atoms: S_1  and  C_14
REMARK    3  A    between atoms: N_4  and  C_6
REMARK    4  A    between atoms: C_19  and  C_20
REMARK    5  A    between atoms: C_20  and  O_22
REMARK    6  A    between atoms: O_22  and  C_23
REMARK    7  A    between atoms: C_23  and  C_24
REMARK                            x       y       z     vdW  Elec       q    Type
REMARK                         _______ _______ _______ _____ _____    ______ ____
ROOT
ATOM      1  S   UNL     1       0.662  -0.937   0.260  0.00  0.00    +0.000 S 
ATOM      2  O   UNL     1      -0.023  -2.265   0.419  0.00  0.00    +0.000 OA
ATOM      3  O   UNL     1       0.912  -0.329   1.613  0.00  0.00    +0.000 OA
ENDROOT
BRANCH   1   4
ATOM      4  C   UNL     1      -0.350   0.177  -0.725  0.00  0.00    +0.000 C 
ATOM      5  C   UNL     1       0.406   1.510  -0.947  0.00  0.00    +0.000 C 
ATOM      6  C   UNL     1      -0.458   2.630  -1.583  0.00  0.00    +0.000 C 
ATOM      7  C   UNL     1      -1.867   2.164  -1.975  0.00  0.00    +0.000 C 
ATOM      8  C   UNL     1      -2.482   1.381  -0.852  0.00  0.00    +0.000 C 
ATOM      9  C   UNL     1      -1.766   0.443  -0.211  0.00  0.00    +0.000 C 
BRANCH   9  10
ATOM     10  C   UNL     1      -2.431  -0.329   0.865  0.00  0.00    +0.000 C 
ATOM     11  O   UNL     1      -1.803  -0.655   1.907  0.00  0.00    +0.000 OA
BRANCH  10  12
ATOM     12  O   UNL     1      -3.789  -0.644   0.741  0.00  0.00    +0.000 OA
BRANCH  12  13
ATOM     13  C   UNL     1      -4.506  -1.363   1.739  0.00  0.00    +0.000 C 
ATOM     14  C   UNL     1      -5.950  -1.542   1.298  0.00  0.00    +0.000 C 
ENDBRANCH  12  13
ENDBRANCH  10  12
ENDBRANCH   9  10
ENDBRANCH   1   4
BRANCH   1  15
ATOM     15  N   UNL     1       2.173  -1.181  -0.556  0.00  0.00    +0.000 N 
ATOM     16  H   UNL     1       2.141  -1.222  -1.599  0.00  0.00    +0.000 HD
BRANCH  15  17
ATOM     17  C   UNL     1       3.418  -0.851   0.071  0.00  0.00    +0.000 A 
ATOM     18  C   UNL     1       3.859  -1.523   1.229  0.00  0.00    +0.000 A 
ATOM     19 CL   UNL     1       2.950  -2.861   1.921  0.00  0.00    +0.000 Cl
ATOM     20  C   UNL     1       5.078  -1.167   1.819  0.00  0.00    +0.000 A 
ATOM     21  C   UNL     1       5.864  -0.156   1.258  0.00  0.00    +0.000 A 
ATOM     22  F   UNL     1       7.044   0.183   1.833  0.00  0.00    +0.000 F 
ATOM     23  C   UNL     1       5.440   0.496   0.097  0.00  0.00    +0.000 A 
ATOM     24  C   UNL     1       4.225   0.145  -0.498  0.00  0.00    +0.000 A 
ENDBRANCH  15  17
ENDBRANCH   1  15
TORSDOF 6
