REMARK  Name = C:\Users\Maximilian\Desktop\Conformers\converted_pdb\conformers_pdb\Resatorvid_conf_3.pdb
REMARK  7 active torsions:
REMARK  status: ('A' for Active; 'I' for Inactive)
REMARK    1  A    between atoms: S_1  and  N_4
REMARK    2  A    between atoms: S_1  and  C_14
REMARK    3  A    between atoms: N_4  and  C_6
REMARK    4  A    between atoms: C_19  and  C_20
REMARK    5  A    between atoms: C_20  and  O_22
REMARK    6  A    between atoms: O_22  and  C_23
REMARK    7  A    between atoms: C_23  and  C_24
REMARK                            x       y       z     vdW  Elec       q    Type
REMARK                         _______ _______ _______ _____ _____    ______ ____
ROOT
ATOM      1  S   UNL     1       0.495  -0.124  -1.708  0.00  0.00    +0.000 S 
ATOM      2  O   UNL     1       0.088   1.300  -1.968  0.00  0.00    +0.000 OA
ATOM      3  O   UNL     1       0.007  -0.991  -2.835  0.00  0.00    +0.000 OA
ENDROOT
BRANCH   1   4
ATOM      4  C   UNL     1      -0.197  -0.716  -0.154  0.00  0.00    +0.000 C 
ATOM      5  C   UNL     1       0.297  -2.156   0.124  0.00  0.00    +0.000 C 
ATOM      6  C   UNL     1      -0.415  -2.852   1.313  0.00  0.00    +0.000 C 
ATOM      7  C   UNL     1      -1.406  -1.939   2.050  0.00  0.00    +0.000 C 
ATOM      8  C   UNL     1      -2.267  -1.206   1.064  0.00  0.00    +0.000 C 
ATOM      9  C   UNL     1      -1.718  -0.636  -0.020  0.00  0.00    +0.000 C 
BRANCH   9  10
ATOM     10  C   UNL     1      -2.599   0.126  -0.932  0.00  0.00    +0.000 C 
ATOM     11  O   UNL     1      -2.457   0.041  -2.181  0.00  0.00    +0.000 OA
BRANCH  10  12
ATOM     12  O   UNL     1      -3.637   0.897  -0.394  0.00  0.00    +0.000 OA
BRANCH  12  13
ATOM     13  C   UNL     1      -4.504   1.709  -1.184  0.00  0.00    +0.000 C 
ATOM     14  C   UNL     1      -3.784   2.969  -1.650  0.00  0.00    +0.000 C 
ENDBRANCH  12  13
ENDBRANCH  10  12
ENDBRANCH   9  10
ENDBRANCH   1   4
BRANCH   1  15
ATOM     15  N   UNL     1       2.227  -0.225  -1.653  0.00  0.00    +0.000 N 
ATOM     16  H   UNL     1       2.686  -0.786  -2.404  0.00  0.00    +0.000 HD
BRANCH  15  17
ATOM     17  C   UNL     1       3.007   0.255  -0.543  0.00  0.00    +0.000 A 
ATOM     18  C   UNL     1       4.211  -0.390  -0.186  0.00  0.00    +0.000 A 
ATOM     19 CL   UNL     1       4.779  -1.822  -1.037  0.00  0.00    +0.000 Cl
ATOM     20  C   UNL     1       4.970   0.087   0.890  0.00  0.00    +0.000 A 
ATOM     21  C   UNL     1       4.544   1.203   1.613  0.00  0.00    +0.000 A 
ATOM     22  F   UNL     1       5.283   1.658   2.655  0.00  0.00    +0.000 F 
ATOM     23  C   UNL     1       3.359   1.851   1.263  0.00  0.00    +0.000 A 
ATOM     24  C   UNL     1       2.596   1.383   0.190  0.00  0.00    +0.000 A 
ENDBRANCH  15  17
ENDBRANCH   1  15
TORSDOF 6
