REMARK  Name = C:\Users\Maximilian\Desktop\Conformers\converted_pdb\conformers_pdb\Resatorvid_conf_40.pdb
REMARK  7 active torsions:
REMARK  status: ('A' for Active; 'I' for Inactive)
REMARK    1  A    between atoms: S_1  and  N_4
REMARK    2  A    between atoms: S_1  and  C_14
REMARK    3  A    between atoms: N_4  and  C_6
REMARK    4  A    between atoms: C_19  and  C_20
REMARK    5  A    between atoms: C_20  and  O_22
REMARK    6  A    between atoms: O_22  and  C_23
REMARK    7  A    between atoms: C_23  and  C_24
REMARK                            x       y       z     vdW  Elec       q    Type
REMARK                         _______ _______ _______ _____ _____    ______ ____
ROOT
ATOM      1  S   UNL     1       0.303   1.173   2.410  0.00  0.00    +0.000 S 
ATOM      2  O   UNL     1       1.502   1.220   3.316  0.00  0.00    +0.000 OA
ATOM      3  O   UNL     1      -0.824   1.891   3.098  0.00  0.00    +0.000 OA
ENDROOT
BRANCH   1   4
ATOM      4  C   UNL     1      -0.207  -0.531   2.096  0.00  0.00    +0.000 C 
ATOM      5  C   UNL     1       0.991  -1.493   2.307  0.00  0.00    +0.000 C 
ATOM      6  C   UNL     1       0.848  -2.782   1.504  0.00  0.00    +0.000 C 
ATOM      7  C   UNL     1       0.721  -2.431   0.025  0.00  0.00    +0.000 C 
ATOM      8  C   UNL     1      -0.453  -1.527  -0.200  0.00  0.00    +0.000 C 
ATOM      9  C   UNL     1      -0.887  -0.652   0.729  0.00  0.00    +0.000 C 
BRANCH   9  10
ATOM     10  C   UNL     1      -2.126   0.119   0.459  0.00  0.00    +0.000 C 
ATOM     11  O   UNL     1      -2.721   0.709   1.401  0.00  0.00    +0.000 OA
BRANCH  10  12
ATOM     12  O   UNL     1      -2.645   0.180  -0.840  0.00  0.00    +0.000 OA
BRANCH  12  13
ATOM     13  C   UNL     1      -3.813   0.925  -1.168  0.00  0.00    +0.000 C 
ATOM     14  C   UNL     1      -4.092   0.802  -2.657  0.00  0.00    +0.000 C 
ENDBRANCH  12  13
ENDBRANCH  10  12
ENDBRANCH   9  10
ENDBRANCH   1   4
BRANCH   1  15
ATOM     15  N   UNL     1       0.654   2.001   0.923  0.00  0.00    +0.000 N 
ATOM     16  H   UNL     1       0.007   2.774   0.654  0.00  0.00    +0.000 HD
BRANCH  15  17
ATOM     17  C   UNL     1       1.577   1.486  -0.050  0.00  0.00    +0.000 A 
ATOM     18  C   UNL     1       1.253   1.503  -1.423  0.00  0.00    +0.000 A 
ATOM     19 CL   UNL     1      -0.280   2.145  -2.000  0.00  0.00    +0.000 Cl
ATOM     20  C   UNL     1       2.150   0.979  -2.361  0.00  0.00    +0.000 A 
ATOM     21  C   UNL     1       3.376   0.454  -1.947  0.00  0.00    +0.000 A 
ATOM     22  F   UNL     1       4.241  -0.053  -2.861  0.00  0.00    +0.000 F 
ATOM     23  C   UNL     1       3.716   0.461  -0.594  0.00  0.00    +0.000 A 
ATOM     24  C   UNL     1       2.826   0.981   0.349  0.00  0.00    +0.000 A 
ENDBRANCH  15  17
ENDBRANCH   1  15
TORSDOF 6
