REMARK  Name = C:\Users\Maximilian\Desktop\Conformers\converted_pdb\conformers_pdb\Resatorvid_conf_24.pdb
REMARK  7 active torsions:
REMARK  status: ('A' for Active; 'I' for Inactive)
REMARK    1  A    between atoms: S_1  and  N_4
REMARK    2  A    between atoms: S_1  and  C_14
REMARK    3  A    between atoms: N_4  and  C_6
REMARK    4  A    between atoms: C_19  and  C_20
REMARK    5  A    between atoms: C_20  and  O_22
REMARK    6  A    between atoms: O_22  and  C_23
REMARK    7  A    between atoms: C_23  and  C_24
REMARK                            x       y       z     vdW  Elec       q    Type
REMARK                         _______ _______ _______ _____ _____    ______ ____
ROOT
ATOM      1  S   UNL     1       0.276   0.161   0.268  0.00  0.00    +0.000 S 
ATOM      2  O   UNL     1      -0.198   1.063   1.372  0.00  0.00    +0.000 OA
ATOM      3  O   UNL     1       0.204   0.902  -1.038  0.00  0.00    +0.000 OA
ENDROOT
BRANCH   1   4
ATOM      4  C   UNL     1      -0.759  -1.312   0.173  0.00  0.00    +0.000 C 
ATOM      5  C   UNL     1       0.053  -2.451  -0.487  0.00  0.00    +0.000 C 
ATOM      6  C   UNL     1      -0.853  -3.536  -1.058  0.00  0.00    +0.000 C 
ATOM      7  C   UNL     1      -1.757  -2.918  -2.120  0.00  0.00    +0.000 C 
ATOM      8  C   UNL     1      -2.530  -1.761  -1.558  0.00  0.00    +0.000 C 
ATOM      9  C   UNL     1      -2.084  -1.007  -0.531  0.00  0.00    +0.000 C 
BRANCH   9  10
ATOM     10  C   UNL     1      -2.982   0.033   0.026  0.00  0.00    +0.000 C 
ATOM     11  O   UNL     1      -3.876   0.553  -0.697  0.00  0.00    +0.000 OA
BRANCH  10  12
ATOM     12  O   UNL     1      -2.857   0.412   1.368  0.00  0.00    +0.000 OA
BRANCH  12  13
ATOM     13  C   UNL     1      -3.671   1.409   1.984  0.00  0.00    +0.000 C 
ATOM     14  C   UNL     1      -3.240   2.805   1.550  0.00  0.00    +0.000 C 
ENDBRANCH  12  13
ENDBRANCH  10  12
ENDBRANCH   9  10
ENDBRANCH   1   4
BRANCH   1  15
ATOM     15  N   UNL     1       1.917  -0.290   0.599  0.00  0.00    +0.000 N 
ATOM     16  H   UNL     1       2.066  -0.967   1.379  0.00  0.00    +0.000 HD
BRANCH  15  17
ATOM     17  C   UNL     1       2.987   0.601   0.275  0.00  0.00    +0.000 A 
ATOM     18  C   UNL     1       3.461   0.719  -1.046  0.00  0.00    +0.000 A 
ATOM     19 CL   UNL     1       2.807  -0.270  -2.345  0.00  0.00    +0.000 Cl
ATOM     20  C   UNL     1       4.507   1.604  -1.334  0.00  0.00    +0.000 A 
ATOM     21  C   UNL     1       5.089   2.362  -0.313  0.00  0.00    +0.000 A 
ATOM     22  F   UNL     1       6.103   3.216  -0.598  0.00  0.00    +0.000 F 
ATOM     23  C   UNL     1       4.633   2.232   1.001  0.00  0.00    +0.000 A 
ATOM     24  C   UNL     1       3.589   1.351   1.295  0.00  0.00    +0.000 A 
ENDBRANCH  15  17
ENDBRANCH   1  15
TORSDOF 6
