REMARK  Name = C:\Users\Maximilian\Desktop\Conformers\converted_pdb\conformers_pdb\Resatorvid_conf_9.pdb
REMARK  7 active torsions:
REMARK  status: ('A' for Active; 'I' for Inactive)
REMARK    1  A    between atoms: S_1  and  N_4
REMARK    2  A    between atoms: S_1  and  C_14
REMARK    3  A    between atoms: N_4  and  C_6
REMARK    4  A    between atoms: C_19  and  C_20
REMARK    5  A    between atoms: C_20  and  O_22
REMARK    6  A    between atoms: O_22  and  C_23
REMARK    7  A    between atoms: C_23  and  C_24
REMARK                            x       y       z     vdW  Elec       q    Type
REMARK                         _______ _______ _______ _____ _____    ______ ____
ROOT
ATOM      1  S   UNL     1       0.832  -0.271   1.387  0.00  0.00    +0.000 S 
ATOM      2  O   UNL     1       1.785  -1.078   2.224  0.00  0.00    +0.000 OA
ATOM      3  O   UNL     1       0.585   1.052   2.055  0.00  0.00    +0.000 OA
ENDROOT
BRANCH   1   4
ATOM      4  C   UNL     1      -0.705  -1.191   1.214  0.00  0.00    +0.000 C 
ATOM      5  C   UNL     1      -0.368  -2.649   0.807  0.00  0.00    +0.000 C 
ATOM      6  C   UNL     1      -1.499  -3.311   0.027  0.00  0.00    +0.000 C 
ATOM      7  C   UNL     1      -1.787  -2.484  -1.222  0.00  0.00    +0.000 C 
ATOM      8  C   UNL     1      -2.145  -1.077  -0.847  0.00  0.00    +0.000 C 
ATOM      9  C   UNL     1      -1.659  -0.473   0.256  0.00  0.00    +0.000 C 
BRANCH   9  10
ATOM     10  C   UNL     1      -2.174   0.871   0.608  0.00  0.00    +0.000 C 
ATOM     11  O   UNL     1      -2.147   1.260   1.807  0.00  0.00    +0.000 OA
BRANCH  10  12
ATOM     12  O   UNL     1      -2.703   1.701  -0.390  0.00  0.00    +0.000 OA
BRANCH  12  13
ATOM     13  C   UNL     1      -3.272   2.982  -0.127  0.00  0.00    +0.000 C 
ATOM     14  C   UNL     1      -4.663   2.838   0.478  0.00  0.00    +0.000 C 
ENDBRANCH  12  13
ENDBRANCH  10  12
ENDBRANCH   9  10
ENDBRANCH   1   4
BRANCH   1  15
ATOM     15  N   UNL     1       1.519  -0.008  -0.186  0.00  0.00    +0.000 N 
ATOM     16  H   UNL     1       0.893  -0.175  -1.004  0.00  0.00    +0.000 HD
BRANCH  15  17
ATOM     17  C   UNL     1       2.907   0.308  -0.401  0.00  0.00    +0.000 A 
ATOM     18  C   UNL     1       3.517   0.034  -1.645  0.00  0.00    +0.000 A 
ATOM     19 CL   UNL     1       2.637  -0.742  -2.957  0.00  0.00    +0.000 Cl
ATOM     20  C   UNL     1       4.864   0.357  -1.852  0.00  0.00    +0.000 A 
ATOM     21  C   UNL     1       5.611   0.955  -0.836  0.00  0.00    +0.000 A 
ATOM     22  F   UNL     1       6.914   1.265  -1.044  0.00  0.00    +0.000 F 
ATOM     23  C   UNL     1       5.015   1.235   0.395  0.00  0.00    +0.000 A 
ATOM     24  C   UNL     1       3.672   0.917   0.613  0.00  0.00    +0.000 A 
ENDBRANCH  15  17
ENDBRANCH   1  15
TORSDOF 6
