REMARK  Name = C:\Users\Maximilian\Desktop\Conformers\converted_pdb\conformers_pdb\Resatorvid_conf_23.pdb
REMARK  7 active torsions:
REMARK  status: ('A' for Active; 'I' for Inactive)
REMARK    1  A    between atoms: S_1  and  N_4
REMARK    2  A    between atoms: S_1  and  C_14
REMARK    3  A    between atoms: N_4  and  C_6
REMARK    4  A    between atoms: C_19  and  C_20
REMARK    5  A    between atoms: C_20  and  O_22
REMARK    6  A    between atoms: O_22  and  C_23
REMARK    7  A    between atoms: C_23  and  C_24
REMARK                            x       y       z     vdW  Elec       q    Type
REMARK                         _______ _______ _______ _____ _____    ______ ____
ROOT
ATOM      1  S   UNL     1       0.216   0.980   0.528  0.00  0.00    +0.000 S 
ATOM      2  O   UNL     1       1.321   1.620   1.320  0.00  0.00    +0.000 OA
ATOM      3  O   UNL     1       0.078  -0.465   0.923  0.00  0.00    +0.000 OA
ENDROOT
BRANCH   1   4
ATOM      4  C   UNL     1       0.558   1.093  -1.235  0.00  0.00    +0.000 C 
ATOM      5  C   UNL     1      -0.614   0.474  -2.034  0.00  0.00    +0.000 C 
ATOM      6  C   UNL     1      -0.328   0.303  -3.549  0.00  0.00    +0.000 C 
ATOM      7  C   UNL     1       1.025   0.883  -3.983  0.00  0.00    +0.000 C 
ATOM      8  C   UNL     1       2.101   0.454  -3.029  0.00  0.00    +0.000 C 
ATOM      9  C   UNL     1       1.893   0.514  -1.704  0.00  0.00    +0.000 C 
BRANCH   9  10
ATOM     10  C   UNL     1       2.997   0.120  -0.797  0.00  0.00    +0.000 C 
ATOM     11  O   UNL     1       4.186   0.420  -1.096  0.00  0.00    +0.000 OA
BRANCH  10  12
ATOM     12  O   UNL     1       2.735  -0.626   0.354  0.00  0.00    +0.000 OA
BRANCH  12  13
ATOM     13  C   UNL     1       3.751  -1.012   1.273  0.00  0.00    +0.000 C 
ATOM     14  C   UNL     1       3.120  -1.752   2.441  0.00  0.00    +0.000 C 
ENDBRANCH  12  13
ENDBRANCH  10  12
ENDBRANCH   9  10
ENDBRANCH   1   4
BRANCH   1  15
ATOM     15  N   UNL     1      -1.267   1.815   0.861  0.00  0.00    +0.000 N 
ATOM     16  H   UNL     1      -1.457   2.674   0.297  0.00  0.00    +0.000 HD
BRANCH  15  17
ATOM     17  C   UNL     1      -2.374   1.148   1.475  0.00  0.00    +0.000 A 
ATOM     18  C   UNL     1      -2.285   0.621   2.781  0.00  0.00    +0.000 A 
ATOM     19 CL   UNL     1      -0.840   0.827   3.763  0.00  0.00    +0.000 Cl
ATOM     20  C   UNL     1      -3.388  -0.034   3.344  0.00  0.00    +0.000 A 
ATOM     21  C   UNL     1      -4.578  -0.157   2.623  0.00  0.00    +0.000 A 
ATOM     22  F   UNL     1      -5.642  -0.791   3.174  0.00  0.00    +0.000 F 
ATOM     23  C   UNL     1      -4.677   0.383   1.339  0.00  0.00    +0.000 A 
ATOM     24  C   UNL     1      -3.582   1.039   0.770  0.00  0.00    +0.000 A 
ENDBRANCH  15  17
ENDBRANCH   1  15
TORSDOF 6
