REMARK  Name = C:\Users\Maximilian\Desktop\Conformers\converted_pdb\conformers_pdb\Resatorvid_conf_4.pdb
REMARK  7 active torsions:
REMARK  status: ('A' for Active; 'I' for Inactive)
REMARK    1  A    between atoms: S_1  and  N_4
REMARK    2  A    between atoms: S_1  and  C_14
REMARK    3  A    between atoms: N_4  and  C_6
REMARK    4  A    between atoms: C_19  and  C_20
REMARK    5  A    between atoms: C_20  and  O_22
REMARK    6  A    between atoms: O_22  and  C_23
REMARK    7  A    between atoms: C_23  and  C_24
REMARK                            x       y       z     vdW  Elec       q    Type
REMARK                         _______ _______ _______ _____ _____    ______ ____
ROOT
ATOM      1  S   UNL     1       1.104  -2.164   1.295  0.00  0.00    +0.000 S 
ATOM      2  O   UNL     1       2.089  -3.155   0.738  0.00  0.00    +0.000 OA
ATOM      3  O   UNL     1       0.822  -2.545   2.722  0.00  0.00    +0.000 OA
ENDROOT
BRANCH   1   4
ATOM      4  C   UNL     1      -0.470  -2.211   0.397  0.00  0.00    +0.000 C 
ATOM      5  C   UNL     1      -0.359  -3.122  -0.852  0.00  0.00    +0.000 C 
ATOM      6  C   UNL     1      -1.414  -2.784  -1.902  0.00  0.00    +0.000 C 
ATOM      7  C   UNL     1      -1.243  -1.328  -2.322  0.00  0.00    +0.000 C 
ATOM      8  C   UNL     1      -1.350  -0.420  -1.132  0.00  0.00    +0.000 C 
ATOM      9  C   UNL     1      -1.000  -0.803   0.112  0.00  0.00    +0.000 C 
BRANCH   9  10
ATOM     10  C   UNL     1      -1.266   0.117   1.244  0.00  0.00    +0.000 C 
ATOM     11  O   UNL     1      -1.252  -0.320   2.428  0.00  0.00    +0.000 OA
BRANCH  10  12
ATOM     12  O   UNL     1      -1.527   1.471   1.002  0.00  0.00    +0.000 OA
BRANCH  12  13
ATOM     13  C   UNL     1      -1.847   2.392   2.039  0.00  0.00    +0.000 C 
ATOM     14  C   UNL     1      -1.898   3.800   1.470  0.00  0.00    +0.000 C 
ENDBRANCH  12  13
ENDBRANCH  10  12
ENDBRANCH   9  10
ENDBRANCH   1   4
BRANCH   1  15
ATOM     15  N   UNL     1       1.826  -0.580   1.294  0.00  0.00    +0.000 N 
ATOM     16  H   UNL     1       2.008  -0.158   2.231  0.00  0.00    +0.000 HD
BRANCH  15  17
ATOM     17  C   UNL     1       2.023   0.213   0.109  0.00  0.00    +0.000 A 
ATOM     18  C   UNL     1       1.994   1.624   0.181  0.00  0.00    +0.000 A 
ATOM     19 CL   UNL     1       1.769   2.468   1.708  0.00  0.00    +0.000 Cl
ATOM     20  C   UNL     1       2.134   2.389  -0.983  0.00  0.00    +0.000 A 
ATOM     21  C   UNL     1       2.320   1.767  -2.218  0.00  0.00    +0.000 A 
ATOM     22  F   UNL     1       2.448   2.514  -3.342  0.00  0.00    +0.000 F 
ATOM     23  C   UNL     1       2.372   0.374  -2.296  0.00  0.00    +0.000 A 
ATOM     24  C   UNL     1       2.234  -0.398  -1.141  0.00  0.00    +0.000 A 
ENDBRANCH  15  17
ENDBRANCH   1  15
TORSDOF 6
