REMARK  Name = C:\Users\Maximilian\Desktop\Conformers\converted_pdb\conformers_pdb\Resatorvid_conf_39.pdb
REMARK  7 active torsions:
REMARK  status: ('A' for Active; 'I' for Inactive)
REMARK    1  A    between atoms: S_1  and  N_4
REMARK    2  A    between atoms: S_1  and  C_14
REMARK    3  A    between atoms: N_4  and  C_6
REMARK    4  A    between atoms: C_19  and  C_20
REMARK    5  A    between atoms: C_20  and  O_22
REMARK    6  A    between atoms: O_22  and  C_23
REMARK    7  A    between atoms: C_23  and  C_24
REMARK                            x       y       z     vdW  Elec       q    Type
REMARK                         _______ _______ _______ _____ _____    ______ ____
ROOT
ATOM      1  S   UNL     1       0.770  -1.442   0.076  0.00  0.00    +0.000 S 
ATOM      2  O   UNL     1       1.011  -1.421  -1.407  0.00  0.00    +0.000 OA
ATOM      3  O   UNL     1       0.632  -2.874   0.509  0.00  0.00    +0.000 OA
ENDROOT
BRANCH   1   4
ATOM      4  C   UNL     1      -0.735  -0.536   0.485  0.00  0.00    +0.000 C 
ATOM      5  C   UNL     1      -0.867  -0.304   2.003  0.00  0.00    +0.000 C 
ATOM      6  C   UNL     1      -1.343  -1.563   2.726  0.00  0.00    +0.000 C 
ATOM      7  C   UNL     1      -2.692  -2.023   2.170  0.00  0.00    +0.000 C 
ATOM      8  C   UNL     1      -2.759  -1.997   0.666  0.00  0.00    +0.000 C 
ATOM      9  C   UNL     1      -1.946  -1.243  -0.102  0.00  0.00    +0.000 C 
BRANCH   9  10
ATOM     10  C   UNL     1      -2.191  -1.134  -1.562  0.00  0.00    +0.000 C 
ATOM     11  O   UNL     1      -3.091  -1.825  -2.116  0.00  0.00    +0.000 OA
BRANCH  10  12
ATOM     12  O   UNL     1      -1.420  -0.252  -2.325  0.00  0.00    +0.000 OA
BRANCH  12  13
ATOM     13  C   UNL     1      -1.572  -0.107  -3.732  0.00  0.00    +0.000 C 
ATOM     14  C   UNL     1      -0.564   0.907  -4.246  0.00  0.00    +0.000 C 
ENDBRANCH  12  13
ENDBRANCH  10  12
ENDBRANCH   9  10
ENDBRANCH   1   4
BRANCH   1  15
ATOM     15  N   UNL     1       2.136  -0.741   0.885  0.00  0.00    +0.000 N 
ATOM     16  H   UNL     1       2.678  -1.374   1.513  0.00  0.00    +0.000 HD
BRANCH  15  17
ATOM     17  C   UNL     1       2.443   0.666   0.848  0.00  0.00    +0.000 A 
ATOM     18  C   UNL     1       3.156   1.269   1.907  0.00  0.00    +0.000 A 
ATOM     19 CL   UNL     1       3.658   0.353   3.323  0.00  0.00    +0.000 Cl
ATOM     20  C   UNL     1       3.455   2.636   1.864  0.00  0.00    +0.000 A 
ATOM     21  C   UNL     1       3.055   3.412   0.775  0.00  0.00    +0.000 A 
ATOM     22  F   UNL     1       3.348   4.736   0.741  0.00  0.00    +0.000 F 
ATOM     23  C   UNL     1       2.355   2.825  -0.279  0.00  0.00    +0.000 A 
ATOM     24  C   UNL     1       2.052   1.462  -0.247  0.00  0.00    +0.000 A 
ENDBRANCH  15  17
ENDBRANCH   1  15
TORSDOF 6
