REMARK  Name = C:\Users\Maximilian\Desktop\Conformers\converted_pdb\conformers_pdb\Resatorvid_conf_41.pdb
REMARK  7 active torsions:
REMARK  status: ('A' for Active; 'I' for Inactive)
REMARK    1  A    between atoms: S_1  and  N_4
REMARK    2  A    between atoms: S_1  and  C_14
REMARK    3  A    between atoms: N_4  and  C_6
REMARK    4  A    between atoms: C_19  and  C_20
REMARK    5  A    between atoms: C_20  and  O_22
REMARK    6  A    between atoms: O_22  and  C_23
REMARK    7  A    between atoms: C_23  and  C_24
REMARK                            x       y       z     vdW  Elec       q    Type
REMARK                         _______ _______ _______ _____ _____    ______ ____
ROOT
ATOM      1  S   UNL     1      -0.067  -2.212   0.835  0.00  0.00    +0.000 S 
ATOM      2  O   UNL     1      -0.351  -3.683   0.714  0.00  0.00    +0.000 OA
ATOM      3  O   UNL     1      -0.618  -1.737   2.149  0.00  0.00    +0.000 OA
ENDROOT
BRANCH   1   4
ATOM      4  C   UNL     1      -0.848  -1.377  -0.560  0.00  0.00    +0.000 C 
ATOM      5  C   UNL     1      -0.268  -1.956  -1.877  0.00  0.00    +0.000 C 
ATOM      6  C   UNL     1      -0.324  -0.956  -3.029  0.00  0.00    +0.000 C 
ATOM      7  C   UNL     1       0.439   0.303  -2.629  0.00  0.00    +0.000 C 
ATOM      8  C   UNL     1      -0.145   0.894  -1.382  0.00  0.00    +0.000 C 
ATOM      9  C   UNL     1      -0.741   0.144  -0.433  0.00  0.00    +0.000 C 
BRANCH   9  10
ATOM     10  C   UNL     1      -1.440   0.825   0.683  0.00  0.00    +0.000 C 
ATOM     11  O   UNL     1      -1.127   2.006   1.005  0.00  0.00    +0.000 OA
BRANCH  10  12
ATOM     12  O   UNL     1      -2.458   0.156   1.373  0.00  0.00    +0.000 OA
BRANCH  12  13
ATOM     13  C   UNL     1      -3.206   0.743   2.436  0.00  0.00    +0.000 C 
ATOM     14  C   UNL     1      -4.240   1.720   1.889  0.00  0.00    +0.000 C 
ENDBRANCH  12  13
ENDBRANCH  10  12
ENDBRANCH   9  10
ENDBRANCH   1   4
BRANCH   1  15
ATOM     15  N   UNL     1       1.654  -1.984   0.802  0.00  0.00    +0.000 N 
ATOM     16  H   UNL     1       2.237  -2.826   0.600  0.00  0.00    +0.000 HD
BRANCH  15  17
ATOM     17  C   UNL     1       2.258  -0.683   0.743  0.00  0.00    +0.000 A 
ATOM     18  C   UNL     1       3.306  -0.423  -0.163  0.00  0.00    +0.000 A 
ATOM     19 CL   UNL     1       3.890  -1.659  -1.270  0.00  0.00    +0.000 Cl
ATOM     20  C   UNL     1       3.876   0.855  -0.226  0.00  0.00    +0.000 A 
ATOM     21  C   UNL     1       3.420   1.872   0.616  0.00  0.00    +0.000 A 
ATOM     22  F   UNL     1       3.974   3.107   0.548  0.00  0.00    +0.000 F 
ATOM     23  C   UNL     1       2.397   1.614   1.530  0.00  0.00    +0.000 A 
ATOM     24  C   UNL     1       1.823   0.343   1.599  0.00  0.00    +0.000 A 
ENDBRANCH  15  17
ENDBRANCH   1  15
TORSDOF 6
