REMARK  Name = C:\Users\Maximilian\Desktop\Conformers\converted_pdb\conformers_pdb\Resatorvid_conf_17.pdb
REMARK  7 active torsions:
REMARK  status: ('A' for Active; 'I' for Inactive)
REMARK    1  A    between atoms: S_1  and  N_4
REMARK    2  A    between atoms: S_1  and  C_14
REMARK    3  A    between atoms: N_4  and  C_6
REMARK    4  A    between atoms: C_19  and  C_20
REMARK    5  A    between atoms: C_20  and  O_22
REMARK    6  A    between atoms: O_22  and  C_23
REMARK    7  A    between atoms: C_23  and  C_24
REMARK                            x       y       z     vdW  Elec       q    Type
REMARK                         _______ _______ _______ _____ _____    ______ ____
ROOT
ATOM      1  S   UNL     1       0.218   0.327   0.190  0.00  0.00    +0.000 S 
ATOM      2  O   UNL     1      -0.483   1.652   0.278  0.00  0.00    +0.000 OA
ATOM      3  O   UNL     1       0.449  -0.014  -1.256  0.00  0.00    +0.000 OA
ENDROOT
BRANCH   1   4
ATOM      4  C   UNL     1      -0.784  -0.965   0.950  0.00  0.00    +0.000 C 
ATOM      5  C   UNL     1       0.142  -2.128   1.379  0.00  0.00    +0.000 C 
ATOM      6  C   UNL     1      -0.626  -3.435   1.543  0.00  0.00    +0.000 C 
ATOM      7  C   UNL     1      -1.269  -3.800   0.210  0.00  0.00    +0.000 C 
ATOM      8  C   UNL     1      -2.141  -2.685  -0.288  0.00  0.00    +0.000 C 
ATOM      9  C   UNL     1      -1.925  -1.389   0.023  0.00  0.00    +0.000 C 
BRANCH   9  10
ATOM     10  C   UNL     1      -2.919  -0.380  -0.417  0.00  0.00    +0.000 C 
ATOM     11  O   UNL     1      -3.635  -0.596  -1.434  0.00  0.00    +0.000 OA
BRANCH  10  12
ATOM     12  O   UNL     1      -3.085   0.798   0.321  0.00  0.00    +0.000 OA
BRANCH  12  13
ATOM     13  C   UNL     1      -4.012   1.823  -0.032  0.00  0.00    +0.000 C 
ATOM     14  C   UNL     1      -3.495   2.639  -1.211  0.00  0.00    +0.000 C 
ENDBRANCH  12  13
ENDBRANCH  10  12
ENDBRANCH   9  10
ENDBRANCH   1   4
BRANCH   1  15
ATOM     15  N   UNL     1       1.737   0.456   1.014  0.00  0.00    +0.000 N 
ATOM     16  H   UNL     1       1.700   0.498   2.057  0.00  0.00    +0.000 HD
BRANCH  15  17
ATOM     17  C   UNL     1       2.861   1.052   0.362  0.00  0.00    +0.000 A 
ATOM     18  C   UNL     1       3.623   0.331  -0.577  0.00  0.00    +0.000 A 
ATOM     19 CL   UNL     1       3.273  -1.353  -0.941  0.00  0.00    +0.000 Cl
ATOM     20  C   UNL     1       4.716   0.943  -1.203  0.00  0.00    +0.000 A 
ATOM     21  C   UNL     1       5.058   2.263  -0.893  0.00  0.00    +0.000 A 
ATOM     22  F   UNL     1       6.118   2.850  -1.501  0.00  0.00    +0.000 F 
ATOM     23  C   UNL     1       4.314   2.973   0.053  0.00  0.00    +0.000 A 
ATOM     24  C   UNL     1       3.222   2.368   0.682  0.00  0.00    +0.000 A 
ENDBRANCH  15  17
ENDBRANCH   1  15
TORSDOF 6
