REMARK  Name = C:\Users\Maximilian\Desktop\Conformers\converted_pdb\conformers_pdb\Resatorvid_conf_36.pdb
REMARK  7 active torsions:
REMARK  status: ('A' for Active; 'I' for Inactive)
REMARK    1  A    between atoms: S_1  and  N_4
REMARK    2  A    between atoms: S_1  and  C_14
REMARK    3  A    between atoms: N_4  and  C_6
REMARK    4  A    between atoms: C_19  and  C_20
REMARK    5  A    between atoms: C_20  and  O_22
REMARK    6  A    between atoms: O_22  and  C_23
REMARK    7  A    between atoms: C_23  and  C_24
REMARK                            x       y       z     vdW  Elec       q    Type
REMARK                         _______ _______ _______ _____ _____    ______ ____
ROOT
ATOM      1  S   UNL     1      -0.008   0.447   1.085  0.00  0.00    +0.000 S 
ATOM      2  O   UNL     1       0.525   0.589   2.484  0.00  0.00    +0.000 OA
ATOM      3  O   UNL     1      -0.658   1.737   0.672  0.00  0.00    +0.000 OA
ENDROOT
BRANCH   1   4
ATOM      4  C   UNL     1      -1.200  -0.901   1.057  0.00  0.00    +0.000 C 
ATOM      5  C   UNL     1      -0.577  -2.132   1.767  0.00  0.00    +0.000 C 
ATOM      6  C   UNL     1      -1.118  -3.454   1.231  0.00  0.00    +0.000 C 
ATOM      7  C   UNL     1      -0.854  -3.522  -0.269  0.00  0.00    +0.000 C 
ATOM      8  C   UNL     1      -1.508  -2.366  -0.964  0.00  0.00    +0.000 C 
ATOM      9  C   UNL     1      -1.676  -1.166  -0.373  0.00  0.00    +0.000 C 
BRANCH   9  10
ATOM     10  C   UNL     1      -2.459  -0.123  -1.080  0.00  0.00    +0.000 C 
ATOM     11  O   UNL     1      -2.585  -0.165  -2.336  0.00  0.00    +0.000 OA
BRANCH  10  12
ATOM     12  O   UNL     1      -3.085   0.891  -0.345  0.00  0.00    +0.000 OA
BRANCH  12  13
ATOM     13  C   UNL     1      -3.860   1.931  -0.941  0.00  0.00    +0.000 C 
ATOM     14  C   UNL     1      -2.958   2.976  -1.588  0.00  0.00    +0.000 C 
ENDBRANCH  12  13
ENDBRANCH  10  12
ENDBRANCH   9  10
ENDBRANCH   1   4
BRANCH   1  15
ATOM     15  N   UNL     1       1.296   0.078   0.001  0.00  0.00    +0.000 N 
ATOM     16  H   UNL     1       1.136  -0.700  -0.675  0.00  0.00    +0.000 HD
BRANCH  15  17
ATOM     17  C   UNL     1       2.587   0.712   0.070  0.00  0.00    +0.000 A 
ATOM     18  C   UNL     1       3.724   0.075  -0.474  0.00  0.00    +0.000 A 
ATOM     19 CL   UNL     1       3.629  -1.522  -1.206  0.00  0.00    +0.000 Cl
ATOM     20  C   UNL     1       4.975   0.702  -0.415  0.00  0.00    +0.000 A 
ATOM     21  C   UNL     1       5.107   1.961   0.175  0.00  0.00    +0.000 A 
ATOM     22  F   UNL     1       6.321   2.562   0.227  0.00  0.00    +0.000 F 
ATOM     23  C   UNL     1       3.988   2.600   0.710  0.00  0.00    +0.000 A 
ATOM     24  C   UNL     1       2.735   1.984   0.658  0.00  0.00    +0.000 A 
ENDBRANCH  15  17
ENDBRANCH   1  15
TORSDOF 6
