REMARK  Name = C:\Users\Maximilian\Desktop\Conformers\converted_pdb\conformers_pdb\Resatorvid_conf_13.pdb
REMARK  7 active torsions:
REMARK  status: ('A' for Active; 'I' for Inactive)
REMARK    1  A    between atoms: S_1  and  N_4
REMARK    2  A    between atoms: S_1  and  C_14
REMARK    3  A    between atoms: N_4  and  C_6
REMARK    4  A    between atoms: C_19  and  C_20
REMARK    5  A    between atoms: C_20  and  O_22
REMARK    6  A    between atoms: O_22  and  C_23
REMARK    7  A    between atoms: C_23  and  C_24
REMARK                            x       y       z     vdW  Elec       q    Type
REMARK                         _______ _______ _______ _____ _____    ______ ____
ROOT
ATOM      1  S   UNL     1      -0.173  -0.202  -1.984  0.00  0.00    +0.000 S 
ATOM      2  O   UNL     1      -1.623  -0.025  -2.339  0.00  0.00    +0.000 OA
ATOM      3  O   UNL     1       0.560  -0.671  -3.211  0.00  0.00    +0.000 OA
ENDROOT
BRANCH   1   4
ATOM      4  C   UNL     1      -0.044  -1.418  -0.657  0.00  0.00    +0.000 C 
ATOM      5  C   UNL     1      -0.009  -2.832  -1.279  0.00  0.00    +0.000 C 
ATOM      6  C   UNL     1      -0.383  -3.905  -0.262  0.00  0.00    +0.000 C 
ATOM      7  C   UNL     1      -1.801  -3.644   0.237  0.00  0.00    +0.000 C 
ATOM      8  C   UNL     1      -1.936  -2.250   0.779  0.00  0.00    +0.000 C 
ATOM      9  C   UNL     1      -1.162  -1.226   0.370  0.00  0.00    +0.000 C 
BRANCH   9  10
ATOM     10  C   UNL     1      -1.311   0.078   1.053  0.00  0.00    +0.000 C 
ATOM     11  O   UNL     1      -0.308   0.829   1.197  0.00  0.00    +0.000 OA
BRANCH  10  12
ATOM     12  O   UNL     1      -2.558   0.462   1.561  0.00  0.00    +0.000 OA
BRANCH  12  13
ATOM     13  C   UNL     1      -2.806   1.740   2.145  0.00  0.00    +0.000 C 
ATOM     14  C   UNL     1      -2.889   2.815   1.067  0.00  0.00    +0.000 C 
ENDBRANCH  12  13
ENDBRANCH  10  12
ENDBRANCH   9  10
ENDBRANCH   1   4
BRANCH   1  15
ATOM     15  N   UNL     1       0.471   1.335  -1.494  0.00  0.00    +0.000 N 
ATOM     16  H   UNL     1      -0.201   2.133  -1.506  0.00  0.00    +0.000 HD
BRANCH  15  17
ATOM     17  C   UNL     1       1.818   1.536  -1.021  0.00  0.00    +0.000 A 
ATOM     18  C   UNL     1       2.165   2.727  -0.342  0.00  0.00    +0.000 A 
ATOM     19 CL   UNL     1       0.983   3.992  -0.019  0.00  0.00    +0.000 Cl
ATOM     20  C   UNL     1       3.474   2.922   0.115  0.00  0.00    +0.000 A 
ATOM     21  C   UNL     1       4.448   1.945  -0.096  0.00  0.00    +0.000 A 
ATOM     22  F   UNL     1       5.713   2.141   0.350  0.00  0.00    +0.000 F 
ATOM     23  C   UNL     1       4.119   0.768  -0.767  0.00  0.00    +0.000 A 
ATOM     24  C   UNL     1       2.816   0.562  -1.228  0.00  0.00    +0.000 A 
ENDBRANCH  15  17
ENDBRANCH   1  15
TORSDOF 6
