REMARK  Name = C:\Users\Maximilian\Desktop\Conformers\converted_pdb\conformers_pdb\Resatorvid_conf_15.pdb
REMARK  7 active torsions:
REMARK  status: ('A' for Active; 'I' for Inactive)
REMARK    1  A    between atoms: S_1  and  N_4
REMARK    2  A    between atoms: S_1  and  C_14
REMARK    3  A    between atoms: N_4  and  C_6
REMARK    4  A    between atoms: C_19  and  C_20
REMARK    5  A    between atoms: C_20  and  O_22
REMARK    6  A    between atoms: O_22  and  C_23
REMARK    7  A    between atoms: C_23  and  C_24
REMARK                            x       y       z     vdW  Elec       q    Type
REMARK                         _______ _______ _______ _____ _____    ______ ____
ROOT
ATOM      1  S   UNL     1       0.057   0.489   1.335  0.00  0.00    +0.000 S 
ATOM      2  O   UNL     1      -0.835   0.527   2.544  0.00  0.00    +0.000 OA
ATOM      3  O   UNL     1      -0.055   1.804   0.617  0.00  0.00    +0.000 OA
ENDROOT
BRANCH   1   4
ATOM      4  C   UNL     1      -0.466  -0.861   0.253  0.00  0.00    +0.000 C 
ATOM      5  C   UNL     1       0.724  -1.288  -0.646  0.00  0.00    +0.000 C 
ATOM      6  C   UNL     1       0.350  -2.192  -1.846  0.00  0.00    +0.000 C 
ATOM      7  C   UNL     1      -1.127  -2.589  -1.867  0.00  0.00    +0.000 C 
ATOM      8  C   UNL     1      -1.985  -1.388  -1.614  0.00  0.00    +0.000 C 
ATOM      9  C   UNL     1      -1.697  -0.553  -0.603  0.00  0.00    +0.000 C 
BRANCH   9  10
ATOM     10  C   UNL     1      -2.646   0.545  -0.313  0.00  0.00    +0.000 C 
ATOM     11  O   UNL     1      -3.164   1.190  -1.267  0.00  0.00    +0.000 OA
BRANCH  10  12
ATOM     12  O   UNL     1      -3.000   0.838   1.008  0.00  0.00    +0.000 OA
BRANCH  12  13
ATOM     13  C   UNL     1      -3.943   1.846   1.365  0.00  0.00    +0.000 C 
ATOM     14  C   UNL     1      -5.367   1.364   1.114  0.00  0.00    +0.000 C 
ENDBRANCH  12  13
ENDBRANCH  10  12
ENDBRANCH   9  10
ENDBRANCH   1   4
BRANCH   1  15
ATOM     15  N   UNL     1       1.684   0.239   1.901  0.00  0.00    +0.000 N 
ATOM     16  H   UNL     1       1.784  -0.313   2.782  0.00  0.00    +0.000 HD
BRANCH  15  17
ATOM     17  C   UNL     1       2.855   0.490   1.105  0.00  0.00    +0.000 A 
ATOM     18  C   UNL     1       3.895  -0.462   1.052  0.00  0.00    +0.000 A 
ATOM     19 CL   UNL     1       3.785  -1.991   1.916  0.00  0.00    +0.000 Cl
ATOM     20  C   UNL     1       5.034  -0.215   0.276  0.00  0.00    +0.000 A 
ATOM     21  C   UNL     1       5.155   0.980  -0.436  0.00  0.00    +0.000 A 
ATOM     22  F   UNL     1       6.261   1.214  -1.184  0.00  0.00    +0.000 F 
ATOM     23  C   UNL     1       4.142   1.938  -0.368  0.00  0.00    +0.000 A 
ATOM     24  C   UNL     1       3.001   1.699   0.403  0.00  0.00    +0.000 A 
ENDBRANCH  15  17
ENDBRANCH   1  15
TORSDOF 6
