REMARK  Name = C:\Users\Maximilian\Desktop\Conformers\converted_pdb\conformers_pdb\Resatorvid_conf_10.pdb
REMARK  7 active torsions:
REMARK  status: ('A' for Active; 'I' for Inactive)
REMARK    1  A    between atoms: S_1  and  N_4
REMARK    2  A    between atoms: S_1  and  C_14
REMARK    3  A    between atoms: N_4  and  C_6
REMARK    4  A    between atoms: C_19  and  C_20
REMARK    5  A    between atoms: C_20  and  O_22
REMARK    6  A    between atoms: O_22  and  C_23
REMARK    7  A    between atoms: C_23  and  C_24
REMARK                            x       y       z     vdW  Elec       q    Type
REMARK                         _______ _______ _______ _____ _____    ______ ____
ROOT
ATOM      1  S   UNL     1       1.075  -0.923   0.775  0.00  0.00    +0.000 S 
ATOM      2  O   UNL     1       2.385  -1.639   0.582  0.00  0.00    +0.000 OA
ATOM      3  O   UNL     1       0.625  -1.114   2.197  0.00  0.00    +0.000 OA
ENDROOT
BRANCH   1   4
ATOM      4  C   UNL     1      -0.120  -1.642  -0.363  0.00  0.00    +0.000 C 
ATOM      5  C   UNL     1       0.405  -1.501  -1.816  0.00  0.00    +0.000 C 
ATOM      6  C   UNL     1      -0.637  -1.854  -2.909  0.00  0.00    +0.000 C 
ATOM      7  C   UNL     1      -1.951  -2.400  -2.339  0.00  0.00    +0.000 C 
ATOM      8  C   UNL     1      -2.420  -1.535  -1.207  0.00  0.00    +0.000 C 
ATOM      9  C   UNL     1      -1.561  -1.134  -0.255  0.00  0.00    +0.000 C 
BRANCH   9  10
ATOM     10  C   UNL     1      -2.111  -0.381   0.898  0.00  0.00    +0.000 C 
ATOM     11  O   UNL     1      -1.438   0.523   1.462  0.00  0.00    +0.000 OA
BRANCH  10  12
ATOM     12  O   UNL     1      -3.417  -0.654   1.327  0.00  0.00    +0.000 OA
BRANCH  12  13
ATOM     13  C   UNL     1      -4.065   0.041   2.389  0.00  0.00    +0.000 C 
ATOM     14  C   UNL     1      -4.471   1.444   1.952  0.00  0.00    +0.000 C 
ENDBRANCH  12  13
ENDBRANCH  10  12
ENDBRANCH   9  10
ENDBRANCH   1   4
BRANCH   1  15
ATOM     15  N   UNL     1       1.292   0.765   0.429  0.00  0.00    +0.000 N 
ATOM     16  H   UNL     1       0.528   1.237  -0.103  0.00  0.00    +0.000 HD
BRANCH  15  17
ATOM     17  C   UNL     1       2.604   1.334   0.347  0.00  0.00    +0.000 A 
ATOM     18  C   UNL     1       3.447   1.413   1.475  0.00  0.00    +0.000 A 
ATOM     19 CL   UNL     1       2.912   0.883   3.064  0.00  0.00    +0.000 Cl
ATOM     20  C   UNL     1       4.727   1.966   1.349  0.00  0.00    +0.000 A 
ATOM     21  C   UNL     1       5.171   2.444   0.113  0.00  0.00    +0.000 A 
ATOM     22  F   UNL     1       6.413   2.976  -0.001  0.00  0.00    +0.000 F 
ATOM     23  C   UNL     1       4.334   2.379  -1.004  0.00  0.00    +0.000 A 
ATOM     24  C   UNL     1       3.053   1.836  -0.886  0.00  0.00    +0.000 A 
ENDBRANCH  15  17
ENDBRANCH   1  15
TORSDOF 6
