REMARK  Name = C:\Users\Maximilian\Desktop\Conformers\converted_pdb\conformers_pdb\Resveratrol_conf_2.pdb
REMARK  5 active torsions:
REMARK  status: ('A' for Active; 'I' for Inactive)
REMARK    1  A    between atoms: C4_1  and  C6_7
REMARK    2  A    between atoms: C10_4  and  O1_19
REMARK    3  A    between atoms: C11_5  and  O2_17
REMARK    4  A    between atoms: C7_8  and  C5_9
REMARK    5  A    between atoms: C17_12  and  O3_15
REMARK                            x       y       z     vdW  Elec       q    Type
REMARK                         _______ _______ _______ _____ _____    ______ ____
ROOT
ATOM      1  C4  UNK     0      -1.512  -0.920   0.076  0.00  0.00    +0.000 A 
ATOM      2  C8  UNK     0      -1.341   0.365   0.624  0.00  0.00    +0.000 A 
ATOM      3  C9  UNK     0      -2.425  -1.102  -0.973  0.00  0.00    +0.000 A 
ATOM      4  C10 UNK     0      -3.122  -0.008  -1.505  0.00  0.00    +0.000 A 
ATOM      5  C11 UNK     0      -2.035   1.458   0.095  0.00  0.00    +0.000 A 
ATOM      6  C14 UNK     0      -2.921   1.270  -0.974  0.00  0.00    +0.000 A 
ENDROOT
BRANCH   1   7
ATOM      7  C6  UNK     0      -0.810  -2.097   0.632  0.00  0.00    +0.000 C 
ATOM      8  C7  UNK     0       0.481  -2.130   1.000  0.00  0.00    +0.000 C 
BRANCH   8   9
ATOM      9  C5  UNK     0       1.468  -1.055   0.755  0.00  0.00    +0.000 A 
ATOM     10  C12 UNK     0       1.543  -0.392  -0.484  0.00  0.00    +0.000 A 
ATOM     11  C15 UNK     0       2.502   0.603  -0.694  0.00  0.00    +0.000 A 
ATOM     12  C17 UNK     0       3.411   0.931   0.320  0.00  0.00    +0.000 A 
ATOM     13  C16 UNK     0       3.359   0.254   1.543  0.00  0.00    +0.000 A 
ATOM     14  C13 UNK     0       2.400  -0.741   1.756  0.00  0.00    +0.000 A 
BRANCH  12  15
ATOM     15  O3  UNK     0       4.370   1.922   0.123  0.00  0.00    +0.000 OA
ATOM     16  H29 UNK     0       4.434   2.429  -0.752  0.00  0.00    +0.000 HD
ENDBRANCH  12  15
ENDBRANCH   8   9
ENDBRANCH   1   7
BRANCH   5  17
ATOM     17  O2  UNK     0      -1.840   2.725   0.641  0.00  0.00    +0.000 OA
ATOM     18  H28 UNK     0      -2.327   3.537   0.281  0.00  0.00    +0.000 HD
ENDBRANCH   5  17
BRANCH   4  19
ATOM     19  O1  UNK     0      -4.017  -0.180  -2.559  0.00  0.00    +0.000 OA
ATOM     20  H27 UNK     0      -4.186  -1.093  -2.966  0.00  0.00    +0.000 HD
ENDBRANCH   4  19
TORSDOF 5
