REMARK  Name = C:\Users\Maximilian\Desktop\Conformers\converted_pdb\conformers_pdb\Resveratrol_conf_1.pdb
REMARK  5 active torsions:
REMARK  status: ('A' for Active; 'I' for Inactive)
REMARK    1  A    between atoms: C4_1  and  C6_7
REMARK    2  A    between atoms: C10_4  and  O1_19
REMARK    3  A    between atoms: C11_5  and  O2_17
REMARK    4  A    between atoms: C7_8  and  C5_9
REMARK    5  A    between atoms: C17_12  and  O3_15
REMARK                            x       y       z     vdW  Elec       q    Type
REMARK                         _______ _______ _______ _____ _____    ______ ____
ROOT
ATOM      1  C4  UNK     0      -1.787  -0.277  -0.055  0.00  0.00    +0.000 A 
ATOM      2  C8  UNK     0      -2.562  -1.187  -0.794  0.00  0.00    +0.000 A 
ATOM      3  C9  UNK     0      -2.441   0.734   0.680  0.00  0.00    +0.000 A 
ATOM      4  C10 UNK     0      -3.836   0.843   0.651  0.00  0.00    +0.000 A 
ATOM      5  C11 UNK     0      -3.959  -1.076  -0.825  0.00  0.00    +0.000 A 
ATOM      6  C14 UNK     0      -4.592  -0.059  -0.106  0.00  0.00    +0.000 A 
ENDROOT
BRANCH   1   7
ATOM      7  C6  UNK     0      -0.313  -0.444  -0.047  0.00  0.00    +0.000 C 
ATOM      8  C7  UNK     0       0.547   0.548   0.237  0.00  0.00    +0.000 C 
BRANCH   8   9
ATOM      9  C5  UNK     0       2.021   0.383   0.244  0.00  0.00    +0.000 A 
ATOM     10  C12 UNK     0       2.797   1.301   0.973  0.00  0.00    +0.000 A 
ATOM     11  C15 UNK     0       4.190   1.191   1.003  0.00  0.00    +0.000 A 
ATOM     12  C17 UNK     0       4.830   0.170   0.296  0.00  0.00    +0.000 A 
ATOM     13  C16 UNK     0       4.070  -0.741  -0.447  0.00  0.00    +0.000 A 
ATOM     14  C13 UNK     0       2.676  -0.635  -0.479  0.00  0.00    +0.000 A 
BRANCH  12  15
ATOM     15  O3  UNK     0       6.219   0.073   0.335  0.00  0.00    +0.000 OA
ATOM     16  H29 UNK     0       6.713  -0.655  -0.168  0.00  0.00    +0.000 HD
ENDBRANCH  12  15
ENDBRANCH   8   9
ENDBRANCH   1   7
BRANCH   5  17
ATOM     17  O2  UNK     0      -4.725  -1.972  -1.567  0.00  0.00    +0.000 OA
ATOM     18  H28 UNK     0      -4.298  -2.721  -2.100  0.00  0.00    +0.000 HD
ENDBRANCH   5  17
BRANCH   4  19
ATOM     19  O1  UNK     0      -4.460   1.851   1.383  0.00  0.00    +0.000 OA
ATOM     20  H27 UNK     0      -5.468   1.958   1.385  0.00  0.00    +0.000 HD
ENDBRANCH   4  19
TORSDOF 5
