REMARK  5 active torsions:
REMARK  status: ('A' for Active; 'I' for Inactive)
REMARK    1  A    between atoms: O1_1  and  C10_10 
REMARK    2  A    between atoms: O2_2  and  C11_11 
REMARK    3  A    between atoms: O3_3  and  C17_17 
REMARK    4  A    between atoms: C4_4  and  C6_6 
REMARK    5  A    between atoms: C5_5  and  C7_7 
ROOT
HETATM    1  C4          0       3.563  -2.154   0.000  1.00  0.00    -0.031 A 
HETATM    2  C8          0       2.393  -2.791  -0.000  1.00  0.00     0.048 A 
HETATM    3  C9          0       4.814  -2.921   0.000  1.00  0.00     0.048 A 
HETATM    4  C10         0       4.776  -4.254   0.000  1.00  0.00     0.069 A 
HETATM    5  C11         0       2.354  -4.254  -0.000  1.00  0.00     0.069 A 
HETATM    6  C14         0       3.489  -4.951  -0.000  1.00  0.00     0.073 A 
ENDROOT
BRANCH   1   7
HETATM    7  C6          0       3.591  -0.688   0.000  1.00  0.00     0.012 C 
HETATM    8  C7          0       4.749  -0.031   0.000  1.00  0.00     0.012 C 
BRANCH   8   9
HETATM    9  C5          0       4.754   1.435   0.000  1.00  0.00    -0.036 A 
HETATM   10  C12         0       5.909   2.099   0.000  1.00  0.00     0.014 A 
HETATM   11  C15         0       5.912   3.566   0.000  1.00  0.00     0.037 A 
HETATM   12  C17         0       4.760   4.235  -0.000  1.00  0.00     0.065 A 
HETATM   13  C16         0       3.490   3.505  -0.000  1.00  0.00     0.037 A 
HETATM   14  C13         0       3.486   2.173  -0.000  1.00  0.00     0.014 A 
BRANCH  12  15
HETATM   15  O3          0       4.763   5.626  -0.000  1.00  0.00    -0.361 OA
HETATM   16  H29         0       5.696   5.955  -0.000  1.00  0.00     0.217 HD
ENDBRANCH  12  15
ENDBRANCH   8   9
ENDBRANCH   1   7
BRANCH   5  17
HETATM   17  O2          0       1.132  -4.917  -0.000  1.00  0.00    -0.361 OA
HETATM   18  H28         0       1.288  -5.895  -0.000  1.00  0.00     0.217 HD
ENDBRANCH   5  17
BRANCH   4  19
HETATM   19  O1          0       5.958  -4.985   0.000  1.00  0.00    -0.361 OA
HETATM   20  H27         0       5.745  -5.953   0.000  1.00  0.00     0.217 HD
ENDBRANCH   4  19
TORSDOF 5
