REMARK  Name = C:\Users\Maximilian\Desktop\Conformers\converted_pdb\conformers_pdb\Resveratrol_conf_3.pdb
REMARK  5 active torsions:
REMARK  status: ('A' for Active; 'I' for Inactive)
REMARK    1  A    between atoms: C4_1  and  C6_7
REMARK    2  A    between atoms: C10_4  and  O1_19
REMARK    3  A    between atoms: C11_5  and  O2_17
REMARK    4  A    between atoms: C7_8  and  C5_9
REMARK    5  A    between atoms: C17_12  and  O3_15
REMARK                            x       y       z     vdW  Elec       q    Type
REMARK                         _______ _______ _______ _____ _____    ______ ____
ROOT
ATOM      1  C4  UNK     0      -1.238  -1.336  -0.083  0.00  0.00    +0.000 A 
ATOM      2  C8  UNK     0      -2.459  -1.447   0.598  0.00  0.00    +0.000 A 
ATOM      3  C9  UNK     0      -1.076  -0.318  -1.041  0.00  0.00    +0.000 A 
ATOM      4  C10 UNK     0      -2.104   0.606  -1.274  0.00  0.00    +0.000 A 
ATOM      5  C11 UNK     0      -3.488  -0.527   0.367  0.00  0.00    +0.000 A 
ATOM      6  C14 UNK     0      -3.305   0.503  -0.566  0.00  0.00    +0.000 A 
ENDROOT
BRANCH   1   7
ATOM      7  C6  UNK     0      -0.180  -2.339   0.166  0.00  0.00    +0.000 C 
ATOM      8  C7  UNK     0       1.132  -2.075   0.271  0.00  0.00    +0.000 C 
BRANCH   8   9
ATOM      9  C5  UNK     0       1.731  -0.723   0.326  0.00  0.00    +0.000 A 
ATOM     10  C12 UNK     0       2.924  -0.475  -0.370  0.00  0.00    +0.000 A 
ATOM     11  C15 UNK     0       3.524   0.787  -0.316  0.00  0.00    +0.000 A 
ATOM     12  C17 UNK     0       2.948   1.809   0.451  0.00  0.00    +0.000 A 
ATOM     13  C16 UNK     0       1.775   1.559   1.169  0.00  0.00    +0.000 A 
ATOM     14  C13 UNK     0       1.173   0.298   1.118  0.00  0.00    +0.000 A 
BRANCH  12  15
ATOM     15  O3  UNK     0       3.535   3.071   0.509  0.00  0.00    +0.000 OA
ATOM     16  H29 UNK     0       4.386   3.283   0.002  0.00  0.00    +0.000 HD
ENDBRANCH  12  15
ENDBRANCH   8   9
ENDBRANCH   1   7
BRANCH   5  17
ATOM     17  O2  UNK     0      -4.686  -0.645   1.068  0.00  0.00    +0.000 OA
ATOM     18  H28 UNK     0      -5.450   0.005   0.923  0.00  0.00    +0.000 HD
ENDBRANCH   5  17
BRANCH   4  19
ATOM     19  O1  UNK     0      -1.943   1.626  -2.208  0.00  0.00    +0.000 OA
ATOM     20  H27 UNK     0      -1.084   1.729  -2.737  0.00  0.00    +0.000 HD
ENDBRANCH   4  19
TORSDOF 5
