REMARK  Name = C:\Users\Maximilian\Desktop\Conformers\converted_pdb\conformers_pdb\Rosmarinic Acid_conf_13.pdb
REMARK  12 active torsions:
REMARK  status: ('A' for Active; 'I' for Inactive)
REMARK    1  A    between atoms: C10_1  and  O1_2
REMARK    2  A    between atoms: C10_1  and  C14_17
REMARK    3  A    between atoms: C10_1  and  C9_21
REMARK    4  A    between atoms: O1_2  and  C18_3
REMARK    5  A    between atoms: C18_3  and  C20_5
REMARK    6  A    between atoms: C21_6  and  C19_7
REMARK    7  A    between atoms: C24_9  and  O7_13
REMARK    8  A    between atoms: C26_10  and  O8_15
REMARK    9  A    between atoms: C14_17  and  O2_19
REMARK   10  A    between atoms: C9_21  and  C11_22
REMARK   11  A    between atoms: C17_25  and  O4_28
REMARK   12  A    between atoms: C15_26  and  O3_30
REMARK                            x       y       z     vdW  Elec       q    Type
REMARK                         _______ _______ _______ _____ _____    ______ ____
ROOT
ATOM      1  C10 UNK     0      -1.885  -2.681   0.592  0.00  0.00    +0.000 C 
ENDROOT
BRANCH   1   2
ATOM      2  C14 UNK     0      -2.789  -2.618   1.789  0.00  0.00    +0.000 C 
ATOM      3  O5  UNK     0      -3.514  -3.606   2.083  0.00  0.00    +0.000 OA
BRANCH   2   4
ATOM      4  O2  UNK     0      -2.862  -1.454   2.550  0.00  0.00    +0.000 OA
ATOM      5  H38 UNK     0      -3.485  -1.393   3.346  0.00  0.00    +0.000 HD
ENDBRANCH   2   4
ENDBRANCH   1   2
BRANCH   1   6
ATOM      6  O1  UNK     0      -0.765  -1.819   0.799  0.00  0.00    +0.000 OA
BRANCH   6   7
ATOM      7  C18 UNK     0       0.415  -1.888   0.050  0.00  0.00    +0.000 C 
ATOM      8  O6  UNK     0       0.578  -2.801  -0.806  0.00  0.00    +0.000 OA
BRANCH   7   9
ATOM      9  C20 UNK     0       1.455  -0.873   0.276  0.00  0.00    +0.000 C 
ATOM     10  C21 UNK     0       2.616  -0.874  -0.395  0.00  0.00    +0.000 C 
BRANCH  10  11
ATOM     11  C19 UNK     0       3.685   0.134  -0.190  0.00  0.00    +0.000 A 
ATOM     12  C22 UNK     0       3.429   1.413   0.345  0.00  0.00    +0.000 A 
ATOM     13  C24 UNK     0       4.466   2.338   0.509  0.00  0.00    +0.000 A 
ATOM     14  C26 UNK     0       5.775   1.997   0.131  0.00  0.00    +0.000 A 
ATOM     15  C25 UNK     0       6.032   0.734  -0.416  0.00  0.00    +0.000 A 
ATOM     16  C23 UNK     0       4.995  -0.187  -0.581  0.00  0.00    +0.000 A 
BRANCH  13  17
ATOM     17  O7  UNK     0       4.176   3.593   1.045  0.00  0.00    +0.000 OA
ATOM     18  H41 UNK     0       4.890   4.298   1.182  0.00  0.00    +0.000 HD
ENDBRANCH  13  17
BRANCH  14  19
ATOM     19  O8  UNK     0       6.813   2.914   0.296  0.00  0.00    +0.000 OA
ATOM     20  H42 UNK     0       7.765   2.692   0.030  0.00  0.00    +0.000 HD
ENDBRANCH  14  19
ENDBRANCH  10  11
ENDBRANCH   7   9
ENDBRANCH   6   7
ENDBRANCH   1   6
BRANCH   1  21
ATOM     21  C9  UNK     0      -2.646  -2.302  -0.694  0.00  0.00    +0.000 C 
BRANCH  21  22
ATOM     22  C11 UNK     0      -3.077  -0.854  -0.710  0.00  0.00    +0.000 A 
ATOM     23  C13 UNK     0      -2.214   0.137  -1.205  0.00  0.00    +0.000 A 
ATOM     24  C16 UNK     0      -2.601   1.479  -1.190  0.00  0.00    +0.000 A 
ATOM     25  C17 UNK     0      -3.849   1.850  -0.680  0.00  0.00    +0.000 A 
ATOM     26  C15 UNK     0      -4.719   0.866  -0.181  0.00  0.00    +0.000 A 
ATOM     27  C12 UNK     0      -4.330  -0.481  -0.197  0.00  0.00    +0.000 A 
BRANCH  25  28
ATOM     28  O4  UNK     0      -4.207   3.198  -0.677  0.00  0.00    +0.000 OA
ATOM     29  H40 UNK     0      -5.099   3.517  -0.319  0.00  0.00    +0.000 HD
ENDBRANCH  25  28
BRANCH  26  30
ATOM     30  O3  UNK     0      -5.964   1.229   0.332  0.00  0.00    +0.000 OA
ATOM     31  H39 UNK     0      -6.608   0.539   0.699  0.00  0.00    +0.000 HD
ENDBRANCH  26  30
ENDBRANCH  21  22
ENDBRANCH   1  21
TORSDOF 12
