REMARK  12 active torsions:
REMARK  status: ('A' for Active; 'I' for Inactive)
REMARK    1  A    between atoms: O1_1  and  C18_18 
REMARK    2  A    between atoms: O1_1  and  C10_10 
REMARK    3  A    between atoms: O2_2  and  C14_14 
REMARK    4  A    between atoms: O3_3  and  C15_15 
REMARK    5  A    between atoms: O4_4  and  C17_17 
REMARK    6  A    between atoms: O7_7  and  C24_24 
REMARK    7  A    between atoms: O8_8  and  C26_26 
REMARK    8  A    between atoms: C9_9  and  C10_10 
REMARK    9  A    between atoms: C9_9  and  C11_11 
REMARK   10  A    between atoms: C10_10  and  C14_14 
REMARK   11  A    between atoms: C18_18  and  C20_20 
REMARK   12  A    between atoms: C19_19  and  C21_21 
ROOT
HETATM    1  C10         0       5.929   1.850  -0.157  1.00  0.00     0.233 C 
ENDROOT
BRANCH   1   2
HETATM    2  O1          0       6.088   0.361   0.170  1.00  0.00    -0.301 OA
BRANCH   2   3
HETATM    3  C18         0       4.989  -0.540  -0.229  1.00  0.00     0.283 C 
HETATM    4  O6          0       4.000  -0.091  -0.812  1.00  0.00    -0.260 OA
BRANCH   3   5
HETATM    5  C20         0       5.034  -2.053   0.030  1.00  0.00     0.083 C 
HETATM    6  C21         0       3.925  -2.794  -0.181  1.00  0.00     0.017 C 
BRANCH   6   7
HETATM    7  C19         0       3.827  -4.314  -0.037  1.00  0.00    -0.033 A 
HETATM    8  C22         0       2.627  -4.908  -0.110  1.00  0.00     0.050 A 
HETATM    9  C24         0       2.499  -6.386  -0.010  1.00  0.00     0.099 A 
HETATM   10  C26         0       3.586  -7.137   0.138  1.00  0.00     0.098 A 
HETATM   11  C25         0       4.910  -6.494   0.219  1.00  0.00     0.040 A 
HETATM   12  C23         0       5.027  -5.160   0.143  1.00  0.00     0.014 A 
BRANCH   9  13
HETATM   13  O7          0       1.245  -7.005  -0.076  1.00  0.00    -0.358 OA
HETATM   14  H41         0       0.537  -6.326  -0.183  1.00  0.00     0.217 HD
ENDBRANCH   9  13
BRANCH  10  15
HETATM   15  O8          0       3.456  -8.534   0.217  1.00  0.00    -0.358 OA
HETATM   16  H42         0       4.345  -8.955   0.317  1.00  0.00     0.217 HD
ENDBRANCH  10  15
ENDBRANCH   6   7
ENDBRANCH   3   5
ENDBRANCH   2   3
ENDBRANCH   1   2
BRANCH   1  17
HETATM   17  C14         0       4.679   2.402   0.529  1.00  0.00     0.171 C 
HETATM   18  O5          0       4.783   3.196   1.470  1.00  0.00    -0.648 OA
BRANCH  17  19
HETATM   19  O2          0       3.412   2.065   0.060  1.00  0.00    -0.774 OA
HETATM   20  H38         0       2.724   2.522   0.597  1.00  0.00     0.167 HD
ENDBRANCH  17  19
ENDBRANCH   1  17
BRANCH   1  21
HETATM   21  C9          0       7.270   2.632   0.313  1.00  0.00     0.082 C 
BRANCH  21  22
HETATM   22  C11         0       7.413   4.207   0.107  1.00  0.00    -0.052 A 
HETATM   23  C13         0       6.268   5.098  -0.210  1.00  0.00     0.010 A 
HETATM   24  C16         0       6.436   6.422  -0.316  1.00  0.00     0.040 A 
HETATM   25  C17         0       7.765   7.022  -0.147  1.00  0.00     0.098 A 
HETATM   26  C15         0       8.807   6.244   0.124  1.00  0.00     0.099 A 
HETATM   27  C12         0       8.622   4.771   0.261  1.00  0.00     0.046 A 
BRANCH  25  28
HETATM   28  O4          0       7.945   8.410  -0.259  1.00  0.00    -0.358 OA
HETATM   29  H40         0       7.079   8.851  -0.449  1.00  0.00     0.217 HD
ENDBRANCH  25  28
BRANCH  26  30
HETATM   30  O3          0      10.072   6.828   0.271  1.00  0.00    -0.358 OA
HETATM   31  H39         0      10.746   6.133   0.459  1.00  0.00     0.217 HD
ENDBRANCH  26  30
ENDBRANCH  21  22
ENDBRANCH   1  21
TORSDOF 12
