REMARK  Name = C:\Users\Maximilian\Desktop\Conformers\converted_pdb\conformers_pdb\Rosmarinic Acid_conf_11.pdb
REMARK  12 active torsions:
REMARK  status: ('A' for Active; 'I' for Inactive)
REMARK    1  A    between atoms: C10_1  and  O1_2
REMARK    2  A    between atoms: C10_1  and  C14_17
REMARK    3  A    between atoms: C10_1  and  C9_21
REMARK    4  A    between atoms: O1_2  and  C18_3
REMARK    5  A    between atoms: C18_3  and  C20_5
REMARK    6  A    between atoms: C21_6  and  C19_7
REMARK    7  A    between atoms: C24_9  and  O7_13
REMARK    8  A    between atoms: C26_10  and  O8_15
REMARK    9  A    between atoms: C14_17  and  O2_19
REMARK   10  A    between atoms: C9_21  and  C11_22
REMARK   11  A    between atoms: C17_25  and  O4_28
REMARK   12  A    between atoms: C15_26  and  O3_30
REMARK                            x       y       z     vdW  Elec       q    Type
REMARK                         _______ _______ _______ _____ _____    ______ ____
ROOT
ATOM      1  C10 UNK     0       1.504  -1.182   0.161  0.00  0.00    +0.000 C 
ENDROOT
BRANCH   1   2
ATOM      2  C14 UNK     0       2.629  -1.787   0.948  0.00  0.00    +0.000 C 
ATOM      3  O5  UNK     0       3.001  -2.970   0.720  0.00  0.00    +0.000 OA
BRANCH   2   4
ATOM      4  O2  UNK     0       3.292  -1.024   1.905  0.00  0.00    +0.000 OA
ATOM      5  H38 UNK     0       4.066  -1.411   2.432  0.00  0.00    +0.000 HD
ENDBRANCH   2   4
ENDBRANCH   1   2
BRANCH   1   6
ATOM      6  O1  UNK     0       0.441  -2.132   0.073  0.00  0.00    +0.000 OA
BRANCH   6   7
ATOM      7  C18 UNK     0      -0.876  -1.792  -0.258  0.00  0.00    +0.000 C 
ATOM      8  O6  UNK     0      -1.184  -0.591  -0.493  0.00  0.00    +0.000 OA
BRANCH   7   9
ATOM      9  C20 UNK     0      -1.874  -2.871  -0.378  0.00  0.00    +0.000 C 
ATOM     10  C21 UNK     0      -3.207  -2.710  -0.377  0.00  0.00    +0.000 C 
BRANCH  10  11
ATOM     11  C19 UNK     0      -3.915  -1.449  -0.073  0.00  0.00    +0.000 A 
ATOM     12  C22 UNK     0      -3.611  -0.701   1.077  0.00  0.00    +0.000 A 
ATOM     13  C24 UNK     0      -4.325   0.469   1.373  0.00  0.00    +0.000 A 
ATOM     14  C26 UNK     0      -5.368   0.883   0.526  0.00  0.00    +0.000 A 
ATOM     15  C25 UNK     0      -5.690   0.121  -0.601  0.00  0.00    +0.000 A 
ATOM     16  C23 UNK     0      -4.977  -1.044  -0.894  0.00  0.00    +0.000 A 
BRANCH  13  17
ATOM     17  O7  UNK     0      -4.007   1.216   2.506  0.00  0.00    +0.000 OA
ATOM     18  H41 UNK     0      -3.260   0.939   3.132  0.00  0.00    +0.000 HD
ENDBRANCH  13  17
BRANCH  14  19
ATOM     19  O8  UNK     0      -6.094   2.044   0.791  0.00  0.00    +0.000 OA
ATOM     20  H42 UNK     0      -5.900   2.629   1.595  0.00  0.00    +0.000 HD
ENDBRANCH  14  19
ENDBRANCH  10  11
ENDBRANCH   7   9
ENDBRANCH   6   7
ENDBRANCH   1   6
BRANCH   1  21
ATOM     21  C9  UNK     0       1.978  -0.785  -1.250  0.00  0.00    +0.000 C 
BRANCH  21  22
ATOM     22  C11 UNK     0       2.985   0.336  -1.203  0.00  0.00    +0.000 A 
ATOM     23  C13 UNK     0       4.360   0.060  -1.264  0.00  0.00    +0.000 A 
ATOM     24  C16 UNK     0       5.291   1.099  -1.187  0.00  0.00    +0.000 A 
ATOM     25  C17 UNK     0       4.863   2.423  -1.042  0.00  0.00    +0.000 A 
ATOM     26  C15 UNK     0       3.489   2.708  -0.971  0.00  0.00    +0.000 A 
ATOM     27  C12 UNK     0       2.556   1.664  -1.049  0.00  0.00    +0.000 A 
BRANCH  25  28
ATOM     28  O4  UNK     0       5.816   3.439  -0.969  0.00  0.00    +0.000 OA
ATOM     29  H40 UNK     0       5.557   4.412  -0.863  0.00  0.00    +0.000 HD
ENDBRANCH  25  28
BRANCH  26  30
ATOM     30  O3  UNK     0       3.056   4.025  -0.822  0.00  0.00    +0.000 OA
ATOM     31  H39 UNK     0       2.071   4.257  -0.768  0.00  0.00    +0.000 HD
ENDBRANCH  26  30
ENDBRANCH  21  22
ENDBRANCH   1  21
TORSDOF 12
