REMARK  Name = C:\Users\Maximilian\Desktop\Conformers\converted_pdb\conformers_pdb\Rosmarinic Acid_conf_2.pdb
REMARK  12 active torsions:
REMARK  status: ('A' for Active; 'I' for Inactive)
REMARK    1  A    between atoms: C10_1  and  O1_2
REMARK    2  A    between atoms: C10_1  and  C14_17
REMARK    3  A    between atoms: C10_1  and  C9_21
REMARK    4  A    between atoms: O1_2  and  C18_3
REMARK    5  A    between atoms: C18_3  and  C20_5
REMARK    6  A    between atoms: C21_6  and  C19_7
REMARK    7  A    between atoms: C24_9  and  O7_13
REMARK    8  A    between atoms: C26_10  and  O8_15
REMARK    9  A    between atoms: C14_17  and  O2_19
REMARK   10  A    between atoms: C9_21  and  C11_22
REMARK   11  A    between atoms: C17_25  and  O4_28
REMARK   12  A    between atoms: C15_26  and  O3_30
REMARK                            x       y       z     vdW  Elec       q    Type
REMARK                         _______ _______ _______ _____ _____    ______ ____
ROOT
ATOM      1  C10 UNK     0      -1.356   2.058  -0.693  0.00  0.00    +0.000 C 
ENDROOT
BRANCH   1   2
ATOM      2  C14 UNK     0      -0.965   3.185  -1.604  0.00  0.00    +0.000 C 
ATOM      3  O5  UNK     0      -0.503   4.254  -1.123  0.00  0.00    +0.000 OA
BRANCH   2   4
ATOM      4  O2  UNK     0      -1.146   3.064  -2.978  0.00  0.00    +0.000 OA
ATOM      5  H38 UNK     0      -0.898   3.821  -3.604  0.00  0.00    +0.000 HD
ENDBRANCH   2   4
ENDBRANCH   1   2
BRANCH   1   6
ATOM      6  O1  UNK     0      -0.938   0.812  -1.253  0.00  0.00    +0.000 OA
BRANCH   6   7
ATOM      7  C18 UNK     0       0.395   0.390  -1.282  0.00  0.00    +0.000 C 
ATOM      8  O6  UNK     0       1.309   1.135  -0.833  0.00  0.00    +0.000 OA
BRANCH   7   9
ATOM      9  C20 UNK     0       0.709  -0.912  -1.900  0.00  0.00    +0.000 C 
ATOM     10  C21 UNK     0       1.838  -1.613  -1.712  0.00  0.00    +0.000 C 
BRANCH  10  11
ATOM     11  C19 UNK     0       2.883  -1.300  -0.715  0.00  0.00    +0.000 A 
ATOM     12  C22 UNK     0       4.231  -1.357  -1.092  0.00  0.00    +0.000 A 
ATOM     13  C24 UNK     0       5.249  -1.111  -0.162  0.00  0.00    +0.000 A 
ATOM     14  C26 UNK     0       4.910  -0.822   1.181  0.00  0.00    +0.000 A 
ATOM     15  C25 UNK     0       3.563  -0.797   1.560  0.00  0.00    +0.000 A 
ATOM     16  C23 UNK     0       2.556  -1.045   0.626  0.00  0.00    +0.000 A 
BRANCH  13  17
ATOM     17  O7  UNK     0       6.570  -1.169  -0.611  0.00  0.00    +0.000 OA
ATOM     18  H41 UNK     0       7.374  -1.016  -0.020  0.00  0.00    +0.000 HD
ENDBRANCH  13  17
BRANCH  14  19
ATOM     19  O8  UNK     0       5.869  -0.559   2.162  0.00  0.00    +0.000 OA
ATOM     20  H42 UNK     0       6.864  -0.546   1.990  0.00  0.00    +0.000 HD
ENDBRANCH  14  19
ENDBRANCH  10  11
ENDBRANCH   7   9
ENDBRANCH   6   7
ENDBRANCH   1   6
BRANCH   1  21
ATOM     21  C9  UNK     0      -2.877   2.048  -0.500  0.00  0.00    +0.000 C 
BRANCH  21  22
ATOM     22  C11 UNK     0      -3.289   0.971   0.471  0.00  0.00    +0.000 A 
ATOM     23  C13 UNK     0      -3.277   1.223   1.852  0.00  0.00    +0.000 A 
ATOM     24  C16 UNK     0      -3.620   0.214   2.755  0.00  0.00    +0.000 A 
ATOM     25  C17 UNK     0      -3.967  -1.060   2.294  0.00  0.00    +0.000 A 
ATOM     26  C15 UNK     0      -3.968  -1.326   0.914  0.00  0.00    +0.000 A 
ATOM     27  C12 UNK     0      -3.627  -0.311   0.008  0.00  0.00    +0.000 A 
BRANCH  25  28
ATOM     28  O4  UNK     0      -4.303  -2.048   3.219  0.00  0.00    +0.000 OA
ATOM     29  H40 UNK     0      -4.560  -2.986   2.935  0.00  0.00    +0.000 HD
ENDBRANCH  25  28
BRANCH  26  30
ATOM     30  O3  UNK     0      -4.306  -2.595   0.447  0.00  0.00    +0.000 OA
ATOM     31  H39 UNK     0      -4.314  -2.813  -0.543  0.00  0.00    +0.000 HD
ENDBRANCH  26  30
ENDBRANCH  21  22
ENDBRANCH   1  21
TORSDOF 12
