REMARK  Name = C:\Users\Maximilian\Desktop\Conformers\converted_pdb\conformers_pdb\Rosmarinic Acid_conf_15.pdb
REMARK  12 active torsions:
REMARK  status: ('A' for Active; 'I' for Inactive)
REMARK    1  A    between atoms: C10_1  and  O1_2
REMARK    2  A    between atoms: C10_1  and  C14_17
REMARK    3  A    between atoms: C10_1  and  C9_21
REMARK    4  A    between atoms: O1_2  and  C18_3
REMARK    5  A    between atoms: C18_3  and  C20_5
REMARK    6  A    between atoms: C21_6  and  C19_7
REMARK    7  A    between atoms: C24_9  and  O7_13
REMARK    8  A    between atoms: C26_10  and  O8_15
REMARK    9  A    between atoms: C14_17  and  O2_19
REMARK   10  A    between atoms: C9_21  and  C11_22
REMARK   11  A    between atoms: C17_25  and  O4_28
REMARK   12  A    between atoms: C15_26  and  O3_30
REMARK                            x       y       z     vdW  Elec       q    Type
REMARK                         _______ _______ _______ _____ _____    ______ ____
ROOT
ATOM      1  C10 UNK     0      -1.687  -0.046  -0.282  0.00  0.00    +0.000 C 
ENDROOT
BRANCH   1   2
ATOM      2  C14 UNK     0      -1.904  -0.780  -1.577  0.00  0.00    +0.000 C 
ATOM      3  O5  UNK     0      -1.486  -1.961  -1.715  0.00  0.00    +0.000 OA
BRANCH   2   4
ATOM      4  O2  UNK     0      -2.602  -0.165  -2.611  0.00  0.00    +0.000 OA
ATOM      5  H38 UNK     0      -2.773  -0.651  -3.483  0.00  0.00    +0.000 HD
ENDBRANCH   2   4
ENDBRANCH   1   2
BRANCH   1   6
ATOM      6  O1  UNK     0      -0.342  -0.226   0.162  0.00  0.00    +0.000 OA
BRANCH   6   7
ATOM      7  C18 UNK     0       0.763   0.353  -0.472  0.00  0.00    +0.000 C 
ATOM      8  O6  UNK     0       0.606   1.095  -1.481  0.00  0.00    +0.000 OA
BRANCH   7   9
ATOM      9  C20 UNK     0       2.109   0.080   0.059  0.00  0.00    +0.000 C 
ATOM     10  C21 UNK     0       3.214   0.615  -0.480  0.00  0.00    +0.000 C 
BRANCH  10  11
ATOM     11  C19 UNK     0       4.584   0.370   0.036  0.00  0.00    +0.000 A 
ATOM     12  C22 UNK     0       5.599   1.282  -0.293  0.00  0.00    +0.000 A 
ATOM     13  C24 UNK     0       6.913   1.098   0.157  0.00  0.00    +0.000 A 
ATOM     14  C26 UNK     0       7.225  -0.031   0.949  0.00  0.00    +0.000 A 
ATOM     15  C25 UNK     0       6.218  -0.948   1.263  0.00  0.00    +0.000 A 
ATOM     16  C23 UNK     0       4.911  -0.758   0.810  0.00  0.00    +0.000 A 
BRANCH  13  17
ATOM     17  O7  UNK     0       7.865   2.053  -0.204  0.00  0.00    +0.000 OA
ATOM     18  H41 UNK     0       8.837   2.011   0.066  0.00  0.00    +0.000 HD
ENDBRANCH  13  17
BRANCH  14  19
ATOM     19  O8  UNK     0       8.510  -0.280   1.436  0.00  0.00    +0.000 OA
ATOM     20  H42 UNK     0       9.304   0.322   1.268  0.00  0.00    +0.000 HD
ENDBRANCH  14  19
ENDBRANCH  10  11
ENDBRANCH   7   9
ENDBRANCH   6   7
ENDBRANCH   1   6
BRANCH   1  21
ATOM     21  C9  UNK     0      -2.643  -0.558   0.805  0.00  0.00    +0.000 C 
BRANCH  21  22
ATOM     22  C11 UNK     0      -4.082  -0.249   0.477  0.00  0.00    +0.000 A 
ATOM     23  C13 UNK     0      -4.609   1.025   0.741  0.00  0.00    +0.000 A 
ATOM     24  C16 UNK     0      -5.932   1.324   0.408  0.00  0.00    +0.000 A 
ATOM     25  C17 UNK     0      -6.744   0.359  -0.199  0.00  0.00    +0.000 A 
ATOM     26  C15 UNK     0      -6.223  -0.917  -0.476  0.00  0.00    +0.000 A 
ATOM     27  C12 UNK     0      -4.894  -1.215  -0.140  0.00  0.00    +0.000 A 
BRANCH  25  28
ATOM     28  O4  UNK     0      -8.061   0.686  -0.520  0.00  0.00    +0.000 OA
ATOM     29  H40 UNK     0      -8.687   0.023  -0.960  0.00  0.00    +0.000 HD
ENDBRANCH  25  28
BRANCH  26  30
ATOM     30  O3  UNK     0      -7.024  -1.881  -1.085  0.00  0.00    +0.000 OA
ATOM     31  H39 UNK     0      -6.672  -2.807  -1.297  0.00  0.00    +0.000 HD
ENDBRANCH  26  30
ENDBRANCH  21  22
ENDBRANCH   1  21
TORSDOF 12
