REMARK  Name = C:\Users\Maximilian\Desktop\Conformers\converted_pdb\conformers_pdb\Rosmarinic Acid_conf_22.pdb
REMARK  12 active torsions:
REMARK  status: ('A' for Active; 'I' for Inactive)
REMARK    1  A    between atoms: C10_1  and  O1_2
REMARK    2  A    between atoms: C10_1  and  C14_17
REMARK    3  A    between atoms: C10_1  and  C9_21
REMARK    4  A    between atoms: O1_2  and  C18_3
REMARK    5  A    between atoms: C18_3  and  C20_5
REMARK    6  A    between atoms: C21_6  and  C19_7
REMARK    7  A    between atoms: C24_9  and  O7_13
REMARK    8  A    between atoms: C26_10  and  O8_15
REMARK    9  A    between atoms: C14_17  and  O2_19
REMARK   10  A    between atoms: C9_21  and  C11_22
REMARK   11  A    between atoms: C17_25  and  O4_28
REMARK   12  A    between atoms: C15_26  and  O3_30
REMARK                            x       y       z     vdW  Elec       q    Type
REMARK                         _______ _______ _______ _____ _____    ______ ____
ROOT
ATOM      1  C10 UNK     0       1.044  -1.112   1.128  0.00  0.00    +0.000 C 
ENDROOT
BRANCH   1   2
ATOM      2  C14 UNK     0       1.168  -2.377   0.322  0.00  0.00    +0.000 C 
ATOM      3  O5  UNK     0       1.485  -2.328  -0.897  0.00  0.00    +0.000 OA
BRANCH   2   4
ATOM      4  O2  UNK     0       0.977  -3.608   0.940  0.00  0.00    +0.000 OA
ATOM      5  H38 UNK     0       1.074  -4.471   0.419  0.00  0.00    +0.000 HD
ENDBRANCH   2   4
ENDBRANCH   1   2
BRANCH   1   6
ATOM      6  O1  UNK     0       0.621  -0.023   0.305  0.00  0.00    +0.000 OA
BRANCH   6   7
ATOM      7  C18 UNK     0      -0.664   0.082  -0.236  0.00  0.00    +0.000 C 
ATOM      8  O6  UNK     0      -1.520  -0.820  -0.024  0.00  0.00    +0.000 OA
BRANCH   7   9
ATOM      9  C20 UNK     0      -0.969   1.233  -1.107  0.00  0.00    +0.000 C 
ATOM     10  C21 UNK     0      -2.197   1.649  -1.454  0.00  0.00    +0.000 C 
BRANCH  10  11
ATOM     11  C19 UNK     0      -3.464   1.146  -0.884  0.00  0.00    +0.000 A 
ATOM     12  C22 UNK     0      -3.655   1.063   0.506  0.00  0.00    +0.000 A 
ATOM     13  C24 UNK     0      -4.878   0.629   1.031  0.00  0.00    +0.000 A 
ATOM     14  C26 UNK     0      -5.931   0.294   0.163  0.00  0.00    +0.000 A 
ATOM     15  C25 UNK     0      -5.751   0.406  -1.222  0.00  0.00    +0.000 A 
ATOM     16  C23 UNK     0      -4.529   0.840  -1.742  0.00  0.00    +0.000 A 
BRANCH  13  17
ATOM     17  O7  UNK     0      -5.028   0.542   2.415  0.00  0.00    +0.000 OA
ATOM     18  H41 UNK     0      -5.893   0.235   2.844  0.00  0.00    +0.000 HD
ENDBRANCH  13  17
BRANCH  14  19
ATOM     19  O8  UNK     0      -7.150  -0.143   0.679  0.00  0.00    +0.000 OA
ATOM     20  H42 UNK     0      -7.925  -0.389   0.074  0.00  0.00    +0.000 HD
ENDBRANCH  14  19
ENDBRANCH  10  11
ENDBRANCH   7   9
ENDBRANCH   6   7
ENDBRANCH   1   6
BRANCH   1  21
ATOM     21  C9  UNK     0       2.373  -0.761   1.817  0.00  0.00    +0.000 C 
BRANCH  21  22
ATOM     22  C11 UNK     0       3.469  -0.427   0.834  0.00  0.00    +0.000 A 
ATOM     23  C13 UNK     0       4.365  -1.420   0.406  0.00  0.00    +0.000 A 
ATOM     24  C16 UNK     0       5.361  -1.116  -0.526  0.00  0.00    +0.000 A 
ATOM     25  C17 UNK     0       5.473   0.178  -1.045  0.00  0.00    +0.000 A 
ATOM     26  C15 UNK     0       4.578   1.177  -0.626  0.00  0.00    +0.000 A 
ATOM     27  C12 UNK     0       3.580   0.871   0.310  0.00  0.00    +0.000 A 
BRANCH  25  28
ATOM     28  O4  UNK     0       6.476   0.451  -1.974  0.00  0.00    +0.000 OA
ATOM     29  H40 UNK     0       6.599   1.371  -2.379  0.00  0.00    +0.000 HD
ENDBRANCH  25  28
BRANCH  26  30
ATOM     30  O3  UNK     0       4.682   2.468  -1.142  0.00  0.00    +0.000 OA
ATOM     31  H39 UNK     0       4.048   3.206  -0.858  0.00  0.00    +0.000 HD
ENDBRANCH  26  30
ENDBRANCH  21  22
ENDBRANCH   1  21
TORSDOF 12
