REMARK  Name = C:\Users\Maximilian\Desktop\Conformers\converted_pdb\conformers_pdb\Rosmarinic Acid_conf_10.pdb
REMARK  12 active torsions:
REMARK  status: ('A' for Active; 'I' for Inactive)
REMARK    1  A    between atoms: C10_1  and  O1_2
REMARK    2  A    between atoms: C10_1  and  C14_17
REMARK    3  A    between atoms: C10_1  and  C9_21
REMARK    4  A    between atoms: O1_2  and  C18_3
REMARK    5  A    between atoms: C18_3  and  C20_5
REMARK    6  A    between atoms: C21_6  and  C19_7
REMARK    7  A    between atoms: C24_9  and  O7_13
REMARK    8  A    between atoms: C26_10  and  O8_15
REMARK    9  A    between atoms: C14_17  and  O2_19
REMARK   10  A    between atoms: C9_21  and  C11_22
REMARK   11  A    between atoms: C17_25  and  O4_28
REMARK   12  A    between atoms: C15_26  and  O3_30
REMARK                            x       y       z     vdW  Elec       q    Type
REMARK                         _______ _______ _______ _____ _____    ______ ____
ROOT
ATOM      1  C10 UNK     0      -0.446   0.273  -1.450  0.00  0.00    +0.000 C 
ENDROOT
BRANCH   1   2
ATOM      2  C14 UNK     0      -0.124  -1.080  -2.022  0.00  0.00    +0.000 C 
ATOM      3  O5  UNK     0      -0.849  -1.571  -2.928  0.00  0.00    +0.000 OA
BRANCH   2   4
ATOM      4  O2  UNK     0       0.962  -1.801  -1.536  0.00  0.00    +0.000 OA
ATOM      5  H38 UNK     0       1.186  -2.717  -1.905  0.00  0.00    +0.000 HD
ENDBRANCH   2   4
ENDBRANCH   1   2
BRANCH   1   6
ATOM      6  O1  UNK     0       0.716   1.100  -1.477  0.00  0.00    +0.000 OA
BRANCH   6   7
ATOM      7  C18 UNK     0       1.307   1.581  -2.652  0.00  0.00    +0.000 C 
ATOM      8  O6  UNK     0       0.775   1.350  -3.771  0.00  0.00    +0.000 OA
BRANCH   7   9
ATOM      9  C20 UNK     0       2.524   2.414  -2.597  0.00  0.00    +0.000 C 
ATOM     10  C21 UNK     0       3.329   2.536  -1.530  0.00  0.00    +0.000 C 
BRANCH  10  11
ATOM     11  C19 UNK     0       3.223   1.731  -0.297  0.00  0.00    +0.000 A 
ATOM     12  C22 UNK     0       3.158   2.373   0.947  0.00  0.00    +0.000 A 
ATOM     13  C24 UNK     0       3.060   1.627   2.127  0.00  0.00    +0.000 A 
ATOM     14  C26 UNK     0       3.048   0.222   2.067  0.00  0.00    +0.000 A 
ATOM     15  C25 UNK     0       3.147  -0.421   0.826  0.00  0.00    +0.000 A 
ATOM     16  C23 UNK     0       3.246   0.328  -0.349  0.00  0.00    +0.000 A 
BRANCH  13  17
ATOM     17  O7  UNK     0       2.975   2.296   3.347  0.00  0.00    +0.000 OA
ATOM     18  H41 UNK     0       2.901   1.802   4.228  0.00  0.00    +0.000 HD
ENDBRANCH  13  17
BRANCH  14  19
ATOM     19  O8  UNK     0       2.941  -0.527   3.238  0.00  0.00    +0.000 OA
ATOM     20  H42 UNK     0       2.930  -1.540   3.220  0.00  0.00    +0.000 HD
ENDBRANCH  14  19
ENDBRANCH  10  11
ENDBRANCH   7   9
ENDBRANCH   6   7
ENDBRANCH   1   6
BRANCH   1  21
ATOM     21  C9  UNK     0      -0.924   0.152   0.004  0.00  0.00    +0.000 C 
BRANCH  21  22
ATOM     22  C11 UNK     0      -2.226  -0.600   0.107  0.00  0.00    +0.000 A 
ATOM     23  C13 UNK     0      -2.234  -1.968   0.424  0.00  0.00    +0.000 A 
ATOM     24  C16 UNK     0      -3.440  -2.669   0.491  0.00  0.00    +0.000 A 
ATOM     25  C17 UNK     0      -4.653  -2.015   0.235  0.00  0.00    +0.000 A 
ATOM     26  C15 UNK     0      -4.652  -0.647  -0.092  0.00  0.00    +0.000 A 
ATOM     27  C12 UNK     0      -3.441   0.051  -0.157  0.00  0.00    +0.000 A 
BRANCH  25  28
ATOM     28  O4  UNK     0      -5.856  -2.717   0.302  0.00  0.00    +0.000 OA
ATOM     29  H40 UNK     0      -5.882  -3.702   0.535  0.00  0.00    +0.000 HD
ENDBRANCH  25  28
BRANCH  26  30
ATOM     30  O3  UNK     0      -5.841   0.031  -0.356  0.00  0.00    +0.000 OA
ATOM     31  H39 UNK     0      -6.743  -0.429  -0.323  0.00  0.00    +0.000 HD
ENDBRANCH  26  30
ENDBRANCH  21  22
ENDBRANCH   1  21
TORSDOF 12
