REMARK  Name = C:\Users\Maximilian\Desktop\Conformers\converted_pdb\conformers_pdb\Rosmarinic Acid_conf_4.pdb
REMARK  12 active torsions:
REMARK  status: ('A' for Active; 'I' for Inactive)
REMARK    1  A    between atoms: C10_1  and  O1_2
REMARK    2  A    between atoms: C10_1  and  C14_17
REMARK    3  A    between atoms: C10_1  and  C9_21
REMARK    4  A    between atoms: O1_2  and  C18_3
REMARK    5  A    between atoms: C18_3  and  C20_5
REMARK    6  A    between atoms: C21_6  and  C19_7
REMARK    7  A    between atoms: C24_9  and  O7_13
REMARK    8  A    between atoms: C26_10  and  O8_15
REMARK    9  A    between atoms: C14_17  and  O2_19
REMARK   10  A    between atoms: C9_21  and  C11_22
REMARK   11  A    between atoms: C17_25  and  O4_28
REMARK   12  A    between atoms: C15_26  and  O3_30
REMARK                            x       y       z     vdW  Elec       q    Type
REMARK                         _______ _______ _______ _____ _____    ______ ____
ROOT
ATOM      1  C10 UNK     0      -1.582  -0.667   0.342  0.00  0.00    +0.000 C 
ENDROOT
BRANCH   1   2
ATOM      2  C14 UNK     0      -2.052  -0.471   1.753  0.00  0.00    +0.000 C 
ATOM      3  O5  UNK     0      -2.908  -1.252   2.248  0.00  0.00    +0.000 OA
BRANCH   2   4
ATOM      4  O2  UNK     0      -1.566   0.594   2.506  0.00  0.00    +0.000 OA
ATOM      5  H38 UNK     0      -1.886   0.746   3.455  0.00  0.00    +0.000 HD
ENDBRANCH   2   4
ENDBRANCH   1   2
BRANCH   1   6
ATOM      6  O1  UNK     0      -0.157  -0.582   0.324  0.00  0.00    +0.000 OA
BRANCH   6   7
ATOM      7  C18 UNK     0       0.637  -1.051  -0.731  0.00  0.00    +0.000 C 
ATOM      8  O6  UNK     0       0.110  -1.638  -1.715  0.00  0.00    +0.000 OA
BRANCH   7   9
ATOM      9  C20 UNK     0       2.097  -0.876  -0.700  0.00  0.00    +0.000 C 
ATOM     10  C21 UNK     0       2.711  -0.238   0.306  0.00  0.00    +0.000 C 
BRANCH  10  11
ATOM     11  C19 UNK     0       4.179  -0.026   0.373  0.00  0.00    +0.000 A 
ATOM     12  C22 UNK     0       5.095  -0.835  -0.329  0.00  0.00    +0.000 A 
ATOM     13  C24 UNK     0       6.472  -0.605  -0.228  0.00  0.00    +0.000 A 
ATOM     14  C26 UNK     0       6.951   0.434   0.586  0.00  0.00    +0.000 A 
ATOM     15  C25 UNK     0       6.045   1.231   1.297  0.00  0.00    +0.000 A 
ATOM     16  C23 UNK     0       4.672   0.999   1.196  0.00  0.00    +0.000 A 
BRANCH  13  17
ATOM     17  O7  UNK     0       7.349  -1.424  -0.940  0.00  0.00    +0.000 OA
ATOM     18  H41 UNK     0       8.354  -1.301  -0.899  0.00  0.00    +0.000 HD
ENDBRANCH  13  17
BRANCH  14  19
ATOM     19  O8  UNK     0       8.321   0.669   0.688  0.00  0.00    +0.000 OA
ATOM     20  H42 UNK     0       8.691   1.412   1.269  0.00  0.00    +0.000 HD
ENDBRANCH  14  19
ENDBRANCH  10  11
ENDBRANCH   7   9
ENDBRANCH   6   7
ENDBRANCH   1   6
BRANCH   1  21
ATOM     21  C9  UNK     0      -2.185   0.404  -0.586  0.00  0.00    +0.000 C 
BRANCH  21  22
ATOM     22  C11 UNK     0      -3.681   0.259  -0.707  0.00  0.00    +0.000 A 
ATOM     23  C13 UNK     0      -4.228  -0.693  -1.581  0.00  0.00    +0.000 A 
ATOM     24  C16 UNK     0      -5.613  -0.851  -1.673  0.00  0.00    +0.000 A 
ATOM     25  C17 UNK     0      -6.468  -0.068  -0.890  0.00  0.00    +0.000 A 
ATOM     26  C15 UNK     0      -5.929   0.881  -0.005  0.00  0.00    +0.000 A 
ATOM     27  C12 UNK     0      -4.538   1.039   0.085  0.00  0.00    +0.000 A 
BRANCH  25  28
ATOM     28  O4  UNK     0      -7.846  -0.248  -1.004  0.00  0.00    +0.000 OA
ATOM     29  H40 UNK     0      -8.506   0.294  -0.458  0.00  0.00    +0.000 HD
ENDBRANCH  25  28
BRANCH  26  30
ATOM     30  O3  UNK     0      -6.775   1.661   0.783  0.00  0.00    +0.000 OA
ATOM     31  H39 UNK     0      -6.411   2.351   1.429  0.00  0.00    +0.000 HD
ENDBRANCH  26  30
ENDBRANCH  21  22
ENDBRANCH   1  21
TORSDOF 12
