REMARK  Name = C:\Users\Maximilian\Desktop\Conformers\converted_pdb\conformers_pdb\Rosmarinic Acid_conf_12.pdb
REMARK  12 active torsions:
REMARK  status: ('A' for Active; 'I' for Inactive)
REMARK    1  A    between atoms: C10_1  and  O1_2
REMARK    2  A    between atoms: C10_1  and  C14_17
REMARK    3  A    between atoms: C10_1  and  C9_21
REMARK    4  A    between atoms: O1_2  and  C18_3
REMARK    5  A    between atoms: C18_3  and  C20_5
REMARK    6  A    between atoms: C21_6  and  C19_7
REMARK    7  A    between atoms: C24_9  and  O7_13
REMARK    8  A    between atoms: C26_10  and  O8_15
REMARK    9  A    between atoms: C14_17  and  O2_19
REMARK   10  A    between atoms: C9_21  and  C11_22
REMARK   11  A    between atoms: C17_25  and  O4_28
REMARK   12  A    between atoms: C15_26  and  O3_30
REMARK                            x       y       z     vdW  Elec       q    Type
REMARK                         _______ _______ _______ _____ _____    ______ ____
ROOT
ATOM      1  C10 UNK     0       1.423  -0.039   0.766  0.00  0.00    +0.000 C 
ENDROOT
BRANCH   1   2
ATOM      2  C14 UNK     0       1.695  -1.272   1.577  0.00  0.00    +0.000 C 
ATOM      3  O5  UNK     0       1.128  -2.360   1.290  0.00  0.00    +0.000 OA
BRANCH   2   4
ATOM      4  O2  UNK     0       2.610  -1.222   2.625  0.00  0.00    +0.000 OA
ATOM      5  H38 UNK     0       2.821  -2.049   3.170  0.00  0.00    +0.000 HD
ENDBRANCH   2   4
ENDBRANCH   1   2
BRANCH   1   6
ATOM      6  O1  UNK     0       0.015   0.066   0.549  0.00  0.00    +0.000 OA
BRANCH   6   7
ATOM      7  C18 UNK     0      -0.623   1.248   0.150  0.00  0.00    +0.000 C 
ATOM      8  O6  UNK     0       0.035   2.315   0.014  0.00  0.00    +0.000 OA
BRANCH   7   9
ATOM      9  C20 UNK     0      -2.071   1.262  -0.108  0.00  0.00    +0.000 C 
ATOM     10  C21 UNK     0      -2.819   0.155  -0.006  0.00  0.00    +0.000 C 
BRANCH  10  11
ATOM     11  C19 UNK     0      -4.279   0.119  -0.269  0.00  0.00    +0.000 A 
ATOM     12  C22 UNK     0      -5.091   1.269  -0.193  0.00  0.00    +0.000 A 
ATOM     13  C24 UNK     0      -6.470   1.183  -0.439  0.00  0.00    +0.000 A 
ATOM     14  C26 UNK     0      -7.049  -0.051  -0.755  0.00  0.00    +0.000 A 
ATOM     15  C25 UNK     0      -6.250  -1.199  -0.816  0.00  0.00    +0.000 A 
ATOM     16  C23 UNK     0      -4.877  -1.115  -0.569  0.00  0.00    +0.000 A 
BRANCH  13  17
ATOM     17  O7  UNK     0      -7.271   2.322  -0.367  0.00  0.00    +0.000 OA
ATOM     18  H41 UNK     0      -6.883   3.230  -0.141  0.00  0.00    +0.000 HD
ENDBRANCH  13  17
BRANCH  14  19
ATOM     19  O8  UNK     0      -8.418  -0.131  -1.001  0.00  0.00    +0.000 OA
ATOM     20  H42 UNK     0      -8.866  -1.011  -1.231  0.00  0.00    +0.000 HD
ENDBRANCH  14  19
ENDBRANCH  10  11
ENDBRANCH   7   9
ENDBRANCH   6   7
ENDBRANCH   1   6
BRANCH   1  21
ATOM     21  C9  UNK     0       2.162  -0.100  -0.583  0.00  0.00    +0.000 C 
BRANCH  21  22
ATOM     22  C11 UNK     0       3.659  -0.061  -0.401  0.00  0.00    +0.000 A 
ATOM     23  C13 UNK     0       4.406  -1.246  -0.403  0.00  0.00    +0.000 A 
ATOM     24  C16 UNK     0       5.787  -1.208  -0.202  0.00  0.00    +0.000 A 
ATOM     25  C17 UNK     0       6.444   0.009   0.010  0.00  0.00    +0.000 A 
ATOM     26  C15 UNK     0       5.696   1.211   0.024  0.00  0.00    +0.000 A 
ATOM     27  C12 UNK     0       4.311   1.162  -0.179  0.00  0.00    +0.000 A 
BRANCH  25  28
ATOM     28  O4  UNK     0       7.827  -0.021   0.203  0.00  0.00    +0.000 OA
ATOM     29  H40 UNK     0       8.393   0.800   0.361  0.00  0.00    +0.000 HD
ENDBRANCH  25  28
BRANCH  26  30
ATOM     30  O3  UNK     0       6.280   2.461   0.235  0.00  0.00    +0.000 OA
ATOM     31  H39 UNK     0       7.267   2.603   0.394  0.00  0.00    +0.000 HD
ENDBRANCH  26  30
ENDBRANCH  21  22
ENDBRANCH   1  21
TORSDOF 12
