REMARK  Name = C:\Users\Maximilian\Desktop\Conformers\converted_pdb\conformers_pdb\Rosmarinic Acid_conf_18.pdb
REMARK  12 active torsions:
REMARK  status: ('A' for Active; 'I' for Inactive)
REMARK    1  A    between atoms: C10_1  and  O1_2
REMARK    2  A    between atoms: C10_1  and  C14_17
REMARK    3  A    between atoms: C10_1  and  C9_21
REMARK    4  A    between atoms: O1_2  and  C18_3
REMARK    5  A    between atoms: C18_3  and  C20_5
REMARK    6  A    between atoms: C21_6  and  C19_7
REMARK    7  A    between atoms: C24_9  and  O7_13
REMARK    8  A    between atoms: C26_10  and  O8_15
REMARK    9  A    between atoms: C14_17  and  O2_19
REMARK   10  A    between atoms: C9_21  and  C11_22
REMARK   11  A    between atoms: C17_25  and  O4_28
REMARK   12  A    between atoms: C15_26  and  O3_30
REMARK                            x       y       z     vdW  Elec       q    Type
REMARK                         _______ _______ _______ _____ _____    ______ ____
ROOT
ATOM      1  C10 UNK     0       2.203  -0.660  -2.836  0.00  0.00    +0.000 C 
ENDROOT
BRANCH   1   2
ATOM      2  C14 UNK     0       2.393  -0.281  -4.274  0.00  0.00    +0.000 C 
ATOM      3  O5  UNK     0       2.834  -1.128  -5.097  0.00  0.00    +0.000 OA
BRANCH   2   4
ATOM      4  O2  UNK     0       2.121   1.018  -4.693  0.00  0.00    +0.000 OA
ATOM      5  H38 UNK     0       2.258   1.291  -5.659  0.00  0.00    +0.000 HD
ENDBRANCH   2   4
ENDBRANCH   1   2
BRANCH   1   6
ATOM      6  O1  UNK     0       0.976  -0.092  -2.373  0.00  0.00    +0.000 OA
BRANCH   6   7
ATOM      7  C18 UNK     0       0.177  -0.665  -1.376  0.00  0.00    +0.000 C 
ATOM      8  O6  UNK     0       0.429  -1.822  -0.937  0.00  0.00    +0.000 OA
BRANCH   7   9
ATOM      9  C20 UNK     0      -0.954   0.110  -0.843  0.00  0.00    +0.000 C 
ATOM     10  C21 UNK     0      -1.742  -0.354   0.138  0.00  0.00    +0.000 C 
BRANCH  10  11
ATOM     11  C19 UNK     0      -2.884   0.403   0.706  0.00  0.00    +0.000 A 
ATOM     12  C22 UNK     0      -3.889  -0.303   1.385  0.00  0.00    +0.000 A 
ATOM     13  C24 UNK     0      -4.984   0.360   1.952  0.00  0.00    +0.000 A 
ATOM     14  C26 UNK     0      -5.076   1.768   1.848  0.00  0.00    +0.000 A 
ATOM     15  C25 UNK     0      -4.066   2.473   1.186  0.00  0.00    +0.000 A 
ATOM     16  C23 UNK     0      -2.977   1.805   0.623  0.00  0.00    +0.000 A 
BRANCH  13  17
ATOM     17  O7  UNK     0      -5.948  -0.412   2.603  0.00  0.00    +0.000 OA
ATOM     18  H41 UNK     0      -6.772  -0.031   3.047  0.00  0.00    +0.000 HD
ENDBRANCH  13  17
BRANCH  14  19
ATOM     19  O8  UNK     0      -6.139   2.497   2.384  0.00  0.00    +0.000 OA
ATOM     20  H42 UNK     0      -6.917   2.082   2.877  0.00  0.00    +0.000 HD
ENDBRANCH  14  19
ENDBRANCH  10  11
ENDBRANCH   7   9
ENDBRANCH   6   7
ENDBRANCH   1   6
BRANCH   1  21
ATOM     21  C9  UNK     0       3.389  -0.133  -2.008  0.00  0.00    +0.000 C 
BRANCH  21  22
ATOM     22  C11 UNK     0       3.294  -0.554  -0.564  0.00  0.00    +0.000 A 
ATOM     23  C13 UNK     0       3.698  -1.841  -0.177  0.00  0.00    +0.000 A 
ATOM     24  C16 UNK     0       3.564  -2.251   1.152  0.00  0.00    +0.000 A 
ATOM     25  C17 UNK     0       3.016  -1.388   2.107  0.00  0.00    +0.000 A 
ATOM     26  C15 UNK     0       2.602  -0.099   1.727  0.00  0.00    +0.000 A 
ATOM     27  C12 UNK     0       2.746   0.313   0.395  0.00  0.00    +0.000 A 
BRANCH  25  28
ATOM     28  O4  UNK     0       2.889  -1.827   3.424  0.00  0.00    +0.000 OA
ATOM     29  H40 UNK     0       2.498  -1.240   4.152  0.00  0.00    +0.000 HD
ENDBRANCH  25  28
BRANCH  26  30
ATOM     30  O3  UNK     0       2.047   0.763   2.671  0.00  0.00    +0.000 OA
ATOM     31  H39 UNK     0       1.735   1.694   2.421  0.00  0.00    +0.000 HD
ENDBRANCH  26  30
ENDBRANCH  21  22
ENDBRANCH   1  21
TORSDOF 12
