REMARK  Name = C:\Users\Maximilian\Desktop\Conformers\converted_pdb\conformers_pdb\Rosmarinic Acid_conf_7.pdb
REMARK  12 active torsions:
REMARK  status: ('A' for Active; 'I' for Inactive)
REMARK    1  A    between atoms: C10_1  and  O1_2
REMARK    2  A    between atoms: C10_1  and  C14_17
REMARK    3  A    between atoms: C10_1  and  C9_21
REMARK    4  A    between atoms: O1_2  and  C18_3
REMARK    5  A    between atoms: C18_3  and  C20_5
REMARK    6  A    between atoms: C21_6  and  C19_7
REMARK    7  A    between atoms: C24_9  and  O7_13
REMARK    8  A    between atoms: C26_10  and  O8_15
REMARK    9  A    between atoms: C14_17  and  O2_19
REMARK   10  A    between atoms: C9_21  and  C11_22
REMARK   11  A    between atoms: C17_25  and  O4_28
REMARK   12  A    between atoms: C15_26  and  O3_30
REMARK                            x       y       z     vdW  Elec       q    Type
REMARK                         _______ _______ _______ _____ _____    ______ ____
ROOT
ATOM      1  C10 UNK     0       1.401   1.179   0.591  0.00  0.00    +0.000 C 
ENDROOT
BRANCH   1   2
ATOM      2  C14 UNK     0       2.380   2.302   0.766  0.00  0.00    +0.000 C 
ATOM      3  O5  UNK     0       2.876   2.872  -0.243  0.00  0.00    +0.000 OA
BRANCH   2   4
ATOM      4  O2  UNK     0       2.766   2.695   2.044  0.00  0.00    +0.000 OA
ATOM      5  H38 UNK     0       3.437   3.442   2.178  0.00  0.00    +0.000 HD
ENDBRANCH   2   4
ENDBRANCH   1   2
BRANCH   1   6
ATOM      6  O1  UNK     0       0.286   1.412   1.451  0.00  0.00    +0.000 OA
BRANCH   6   7
ATOM      7  C18 UNK     0      -0.956   0.785   1.295  0.00  0.00    +0.000 C 
ATOM      8  O6  UNK     0      -1.144  -0.031   0.352  0.00  0.00    +0.000 OA
BRANCH   7   9
ATOM      9  C20 UNK     0      -2.012   1.057   2.288  0.00  0.00    +0.000 C 
ATOM     10  C21 UNK     0      -3.320   0.795   2.133  0.00  0.00    +0.000 C 
BRANCH  10  11
ATOM     11  C19 UNK     0      -3.961   0.359   0.875  0.00  0.00    +0.000 A 
ATOM     12  C22 UNK     0      -4.883  -0.697   0.905  0.00  0.00    +0.000 A 
ATOM     13  C24 UNK     0      -5.541  -1.101  -0.266  0.00  0.00    +0.000 A 
ATOM     14  C26 UNK     0      -5.292  -0.428  -1.474  0.00  0.00    +0.000 A 
ATOM     15  C25 UNK     0      -4.395   0.646  -1.498  0.00  0.00    +0.000 A 
ATOM     16  C23 UNK     0      -3.742   1.046  -0.330  0.00  0.00    +0.000 A 
BRANCH  13  17
ATOM     17  O7  UNK     0      -6.442  -2.164  -0.232  0.00  0.00    +0.000 OA
ATOM     18  H41 UNK     0      -6.640  -2.666   0.626  0.00  0.00    +0.000 HD
ENDBRANCH  13  17
BRANCH  14  19
ATOM     19  O8  UNK     0      -5.928  -0.806  -2.656  0.00  0.00    +0.000 OA
ATOM     20  H42 UNK     0      -6.586  -1.576  -2.690  0.00  0.00    +0.000 HD
ENDBRANCH  14  19
ENDBRANCH  10  11
ENDBRANCH   7   9
ENDBRANCH   6   7
ENDBRANCH   1   6
BRANCH   1  21
ATOM     21  C9  UNK     0       2.057  -0.172   0.931  0.00  0.00    +0.000 C 
BRANCH  21  22
ATOM     22  C11 UNK     0       3.144  -0.527  -0.052  0.00  0.00    +0.000 A 
ATOM     23  C13 UNK     0       4.489  -0.263   0.248  0.00  0.00    +0.000 A 
ATOM     24  C16 UNK     0       5.490  -0.566  -0.679  0.00  0.00    +0.000 A 
ATOM     25  C17 UNK     0       5.159  -1.131  -1.918  0.00  0.00    +0.000 A 
ATOM     26  C15 UNK     0       3.813  -1.390  -2.228  0.00  0.00    +0.000 A 
ATOM     27  C12 UNK     0       2.813  -1.085  -1.298  0.00  0.00    +0.000 A 
BRANCH  25  28
ATOM     28  O4  UNK     0       6.160  -1.432  -2.840  0.00  0.00    +0.000 OA
ATOM     29  H40 UNK     0       7.137  -1.254  -2.640  0.00  0.00    +0.000 HD
ENDBRANCH  25  28
BRANCH  26  30
ATOM     30  O3  UNK     0       3.450  -1.947  -3.454  0.00  0.00    +0.000 OA
ATOM     31  H39 UNK     0       4.136  -2.184  -4.161  0.00  0.00    +0.000 HD
ENDBRANCH  26  30
ENDBRANCH  21  22
ENDBRANCH   1  21
TORSDOF 12
