REMARK  Name = C:\Users\Maximilian\Desktop\Conformers\converted_pdb\conformers_pdb\Rosmarinic Acid_conf_17.pdb
REMARK  12 active torsions:
REMARK  status: ('A' for Active; 'I' for Inactive)
REMARK    1  A    between atoms: C10_1  and  O1_2
REMARK    2  A    between atoms: C10_1  and  C14_17
REMARK    3  A    between atoms: C10_1  and  C9_21
REMARK    4  A    between atoms: O1_2  and  C18_3
REMARK    5  A    between atoms: C18_3  and  C20_5
REMARK    6  A    between atoms: C21_6  and  C19_7
REMARK    7  A    between atoms: C24_9  and  O7_13
REMARK    8  A    between atoms: C26_10  and  O8_15
REMARK    9  A    between atoms: C14_17  and  O2_19
REMARK   10  A    between atoms: C9_21  and  C11_22
REMARK   11  A    between atoms: C17_25  and  O4_28
REMARK   12  A    between atoms: C15_26  and  O3_30
REMARK                            x       y       z     vdW  Elec       q    Type
REMARK                         _______ _______ _______ _____ _____    ______ ____
ROOT
ATOM      1  C10 UNK     0      -1.225  -1.496  -0.286  0.00  0.00    +0.000 C 
ENDROOT
BRANCH   1   2
ATOM      2  C14 UNK     0      -1.320  -2.037   1.115  0.00  0.00    +0.000 C 
ATOM      3  O5  UNK     0      -1.513  -1.260   2.088  0.00  0.00    +0.000 OA
BRANCH   2   4
ATOM      4  O2  UNK     0      -1.240  -3.409   1.330  0.00  0.00    +0.000 OA
ATOM      5  H38 UNK     0      -1.320  -3.794   2.263  0.00  0.00    +0.000 HD
ENDBRANCH   2   4
ENDBRANCH   1   2
BRANCH   1   6
ATOM      6  O1  UNK     0      -0.680  -0.175  -0.286  0.00  0.00    +0.000 OA
BRANCH   6   7
ATOM      7  C18 UNK     0       0.656   0.109   0.018  0.00  0.00    +0.000 C 
ATOM      8  O6  UNK     0       1.450  -0.820   0.329  0.00  0.00    +0.000 OA
BRANCH   7   9
ATOM      9  C20 UNK     0       1.090   1.519   0.028  0.00  0.00    +0.000 C 
ATOM     10  C21 UNK     0       2.362   1.947  -0.004  0.00  0.00    +0.000 C 
BRANCH  10  11
ATOM     11  C19 UNK     0       3.546   1.095  -0.237  0.00  0.00    +0.000 A 
ATOM     12  C22 UNK     0       4.676   1.251   0.578  0.00  0.00    +0.000 A 
ATOM     13  C24 UNK     0       5.829   0.490   0.351  0.00  0.00    +0.000 A 
ATOM     14  C26 UNK     0       5.864  -0.423  -0.717  0.00  0.00    +0.000 A 
ATOM     15  C25 UNK     0       4.747  -0.559  -1.551  0.00  0.00    +0.000 A 
ATOM     16  C23 UNK     0       3.599   0.203  -1.321  0.00  0.00    +0.000 A 
BRANCH  13  17
ATOM     17  O7  UNK     0       6.928   0.657   1.193  0.00  0.00    +0.000 OA
ATOM     18  H41 UNK     0       7.785   0.131   1.070  0.00  0.00    +0.000 HD
ENDBRANCH  13  17
BRANCH  14  19
ATOM     19  O8  UNK     0       7.008  -1.186  -0.947  0.00  0.00    +0.000 OA
ATOM     20  H42 UNK     0       7.058  -1.850  -1.711  0.00  0.00    +0.000 HD
ENDBRANCH  14  19
ENDBRANCH  10  11
ENDBRANCH   7   9
ENDBRANCH   6   7
ENDBRANCH   1   6
BRANCH   1  21
ATOM     21  C9  UNK     0      -2.599  -1.494  -0.975  0.00  0.00    +0.000 C 
BRANCH  21  22
ATOM     22  C11 UNK     0      -3.579  -0.553  -0.316  0.00  0.00    +0.000 A 
ATOM     23  C13 UNK     0      -4.468  -1.026   0.663  0.00  0.00    +0.000 A 
ATOM     24  C16 UNK     0      -5.355  -0.148   1.292  0.00  0.00    +0.000 A 
ATOM     25  C17 UNK     0      -5.362   1.212   0.954  0.00  0.00    +0.000 A 
ATOM     26  C15 UNK     0      -4.475   1.692  -0.019  0.00  0.00    +0.000 A 
ATOM     27  C12 UNK     0      -3.586   0.811  -0.650  0.00  0.00    +0.000 A 
BRANCH  25  28
ATOM     28  O4  UNK     0      -6.244   2.090   1.580  0.00  0.00    +0.000 OA
ATOM     29  H40 UNK     0      -6.897   1.772   2.287  0.00  0.00    +0.000 HD
ENDBRANCH  25  28
BRANCH  26  30
ATOM     30  O3  UNK     0      -4.482   3.046  -0.351  0.00  0.00    +0.000 OA
ATOM     31  H39 UNK     0      -3.852   3.423  -1.049  0.00  0.00    +0.000 HD
ENDBRANCH  26  30
ENDBRANCH  21  22
ENDBRANCH   1  21
TORSDOF 12
