REMARK  Name = C:\Users\Maximilian\Desktop\Conformers\converted_pdb\conformers_pdb\Rosmarinic Acid_conf_28.pdb
REMARK  12 active torsions:
REMARK  status: ('A' for Active; 'I' for Inactive)
REMARK    1  A    between atoms: C10_1  and  O1_2
REMARK    2  A    between atoms: C10_1  and  C14_17
REMARK    3  A    between atoms: C10_1  and  C9_21
REMARK    4  A    between atoms: O1_2  and  C18_3
REMARK    5  A    between atoms: C18_3  and  C20_5
REMARK    6  A    between atoms: C21_6  and  C19_7
REMARK    7  A    between atoms: C24_9  and  O7_13
REMARK    8  A    between atoms: C26_10  and  O8_15
REMARK    9  A    between atoms: C14_17  and  O2_19
REMARK   10  A    between atoms: C9_21  and  C11_22
REMARK   11  A    between atoms: C17_25  and  O4_28
REMARK   12  A    between atoms: C15_26  and  O3_30
REMARK                            x       y       z     vdW  Elec       q    Type
REMARK                         _______ _______ _______ _____ _____    ______ ____
ROOT
ATOM      1  C10 UNK     0      -2.115  -2.264   0.071  0.00  0.00    +0.000 C 
ENDROOT
BRANCH   1   2
ATOM      2  C14 UNK     0      -1.851  -3.741   0.096  0.00  0.00    +0.000 C 
ATOM      3  O5  UNK     0      -1.161  -4.248   1.022  0.00  0.00    +0.000 OA
BRANCH   2   4
ATOM      4  O2  UNK     0      -2.400  -4.558  -0.887  0.00  0.00    +0.000 OA
ATOM      5  H38 UNK     0      -2.242  -5.559  -0.879  0.00  0.00    +0.000 HD
ENDBRANCH   2   4
ENDBRANCH   1   2
BRANCH   1   6
ATOM      6  O1  UNK     0      -0.917  -1.544   0.370  0.00  0.00    +0.000 OA
BRANCH   6   7
ATOM      7  C18 UNK     0       0.161  -1.442  -0.515  0.00  0.00    +0.000 C 
ATOM      8  O6  UNK     0       0.117  -2.001  -1.646  0.00  0.00    +0.000 OA
BRANCH   7   9
ATOM      9  C20 UNK     0       1.345  -0.670  -0.102  0.00  0.00    +0.000 C 
ATOM     10  C21 UNK     0       2.408  -0.505  -0.901  0.00  0.00    +0.000 C 
BRANCH  10  11
ATOM     11  C19 UNK     0       3.610   0.278  -0.523  0.00  0.00    +0.000 A 
ATOM     12  C22 UNK     0       4.453   0.752  -1.542  0.00  0.00    +0.000 A 
ATOM     13  C24 UNK     0       5.604   1.488  -1.238  0.00  0.00    +0.000 A 
ATOM     14  C26 UNK     0       5.932   1.749   0.102  0.00  0.00    +0.000 A 
ATOM     15  C25 UNK     0       5.107   1.266   1.125  0.00  0.00    +0.000 A 
ATOM     16  C23 UNK     0       3.957   0.532   0.819  0.00  0.00    +0.000 A 
BRANCH  13  17
ATOM     17  O7  UNK     0       6.408   1.949  -2.280  0.00  0.00    +0.000 OA
ATOM     18  H41 UNK     0       7.251   2.485  -2.112  0.00  0.00    +0.000 HD
ENDBRANCH  13  17
BRANCH  14  19
ATOM     19  O8  UNK     0       7.077   2.481   0.412  0.00  0.00    +0.000 OA
ATOM     20  H42 UNK     0       7.336   2.682   1.371  0.00  0.00    +0.000 HD
ENDBRANCH  14  19
ENDBRANCH  10  11
ENDBRANCH   7   9
ENDBRANCH   6   7
ENDBRANCH   1   6
BRANCH   1  21
ATOM     21  C9  UNK     0      -3.198  -1.908   1.098  0.00  0.00    +0.000 C 
BRANCH  21  22
ATOM     22  C11 UNK     0      -3.538  -0.442   1.038  0.00  0.00    +0.000 A 
ATOM     23  C13 UNK     0      -2.875   0.475   1.868  0.00  0.00    +0.000 A 
ATOM     24  C16 UNK     0      -3.165   1.839   1.785  0.00  0.00    +0.000 A 
ATOM     25  C17 UNK     0      -4.113   2.306   0.867  0.00  0.00    +0.000 A 
ATOM     26  C15 UNK     0      -4.773   1.397   0.023  0.00  0.00    +0.000 A 
ATOM     27  C12 UNK     0      -4.481   0.028   0.109  0.00  0.00    +0.000 A 
BRANCH  25  28
ATOM     28  O4  UNK     0      -4.382   3.673   0.807  0.00  0.00    +0.000 OA
ATOM     29  H40 UNK     0      -5.058   4.060   0.160  0.00  0.00    +0.000 HD
ENDBRANCH  25  28
BRANCH  26  30
ATOM     30  O3  UNK     0      -5.715   1.855  -0.897  0.00  0.00    +0.000 OA
ATOM     31  H39 UNK     0      -6.204   1.221  -1.517  0.00  0.00    +0.000 HD
ENDBRANCH  26  30
ENDBRANCH  21  22
ENDBRANCH   1  21
TORSDOF 12
