REMARK  Name = C:\Users\Maximilian\Desktop\Conformers\converted_pdb\conformers_pdb\Rosmarinic Acid_conf_3.pdb
REMARK  12 active torsions:
REMARK  status: ('A' for Active; 'I' for Inactive)
REMARK    1  A    between atoms: C10_1  and  O1_2
REMARK    2  A    between atoms: C10_1  and  C14_17
REMARK    3  A    between atoms: C10_1  and  C9_21
REMARK    4  A    between atoms: O1_2  and  C18_3
REMARK    5  A    between atoms: C18_3  and  C20_5
REMARK    6  A    between atoms: C21_6  and  C19_7
REMARK    7  A    between atoms: C24_9  and  O7_13
REMARK    8  A    between atoms: C26_10  and  O8_15
REMARK    9  A    between atoms: C14_17  and  O2_19
REMARK   10  A    between atoms: C9_21  and  C11_22
REMARK   11  A    between atoms: C17_25  and  O4_28
REMARK   12  A    between atoms: C15_26  and  O3_30
REMARK                            x       y       z     vdW  Elec       q    Type
REMARK                         _______ _______ _______ _____ _____    ______ ____
ROOT
ATOM      1  C10 UNK     0      -1.774   0.110  -0.873  0.00  0.00    +0.000 C 
ENDROOT
BRANCH   1   2
ATOM      2  C14 UNK     0      -2.486  -0.201  -2.156  0.00  0.00    +0.000 C 
ATOM      3  O5  UNK     0      -3.425   0.540  -2.554  0.00  0.00    +0.000 OA
BRANCH   2   4
ATOM      4  O2  UNK     0      -2.132  -1.327  -2.894  0.00  0.00    +0.000 OA
ATOM      5  H38 UNK     0      -2.615  -1.557  -3.754  0.00  0.00    +0.000 HD
ENDBRANCH   2   4
ENDBRANCH   1   2
BRANCH   1   6
ATOM      6  O1  UNK     0      -0.367   0.029  -1.106  0.00  0.00    +0.000 OA
BRANCH   6   7
ATOM      7  C18 UNK     0       0.592   0.586  -0.252  0.00  0.00    +0.000 C 
ATOM      8  O6  UNK     0       0.239   1.246   0.765  0.00  0.00    +0.000 OA
BRANCH   7   9
ATOM      9  C20 UNK     0       2.017   0.392  -0.566  0.00  0.00    +0.000 C 
ATOM     10  C21 UNK     0       2.995   0.913   0.189  0.00  0.00    +0.000 C 
BRANCH  10  11
ATOM     11  C19 UNK     0       4.440   0.747  -0.104  0.00  0.00    +0.000 A 
ATOM     12  C22 UNK     0       4.937  -0.315  -0.885  0.00  0.00    +0.000 A 
ATOM     13  C24 UNK     0       6.314  -0.439  -1.127  0.00  0.00    +0.000 A 
ATOM     14  C26 UNK     0       7.207   0.497  -0.580  0.00  0.00    +0.000 A 
ATOM     15  C25 UNK     0       6.718   1.542   0.209  0.00  0.00    +0.000 A 
ATOM     16  C23 UNK     0       5.347   1.664   0.450  0.00  0.00    +0.000 A 
BRANCH  13  17
ATOM     17  O7  UNK     0       6.797  -1.491  -1.904  0.00  0.00    +0.000 OA
ATOM     18  H41 UNK     0       6.176  -2.181  -2.310  0.00  0.00    +0.000 HD
ENDBRANCH  13  17
BRANCH  14  19
ATOM     19  O8  UNK     0       8.580   0.403  -0.805  0.00  0.00    +0.000 OA
ATOM     20  H42 UNK     0       8.983  -0.336  -1.368  0.00  0.00    +0.000 HD
ENDBRANCH  14  19
ENDBRANCH  10  11
ENDBRANCH   7   9
ENDBRANCH   6   7
ENDBRANCH   1   6
BRANCH   1  21
ATOM     21  C9  UNK     0      -2.184  -0.883   0.230  0.00  0.00    +0.000 C 
BRANCH  21  22
ATOM     22  C11 UNK     0      -3.636  -0.729   0.608  0.00  0.00    +0.000 A 
ATOM     23  C13 UNK     0      -4.607  -1.575   0.056  0.00  0.00    +0.000 A 
ATOM     24  C16 UNK     0      -5.953  -1.410   0.386  0.00  0.00    +0.000 A 
ATOM     25  C17 UNK     0      -6.354  -0.397   1.265  0.00  0.00    +0.000 A 
ATOM     26  C15 UNK     0      -5.380   0.468   1.819  0.00  0.00    +0.000 A 
ATOM     27  C12 UNK     0      -4.032   0.294   1.482  0.00  0.00    +0.000 A 
BRANCH  25  28
ATOM     28  O4  UNK     0      -7.715  -0.286   1.555  0.00  0.00    +0.000 OA
ATOM     29  H40 UNK     0      -8.105   0.407   2.177  0.00  0.00    +0.000 HD
ENDBRANCH  25  28
BRANCH  26  30
ATOM     30  O3  UNK     0      -5.704   1.504   2.698  0.00  0.00    +0.000 OA
ATOM     31  H39 UNK     0      -6.644   1.715   3.000  0.00  0.00    +0.000 HD
ENDBRANCH  26  30
ENDBRANCH  21  22
ENDBRANCH   1  21
TORSDOF 12
