REMARK  Name = C:\Users\Maximilian\Desktop\Conformers\converted_pdb\conformers_pdb\Rosmarinic Acid_conf_26.pdb
REMARK  12 active torsions:
REMARK  status: ('A' for Active; 'I' for Inactive)
REMARK    1  A    between atoms: C10_1  and  O1_2
REMARK    2  A    between atoms: C10_1  and  C14_17
REMARK    3  A    between atoms: C10_1  and  C9_21
REMARK    4  A    between atoms: O1_2  and  C18_3
REMARK    5  A    between atoms: C18_3  and  C20_5
REMARK    6  A    between atoms: C21_6  and  C19_7
REMARK    7  A    between atoms: C24_9  and  O7_13
REMARK    8  A    between atoms: C26_10  and  O8_15
REMARK    9  A    between atoms: C14_17  and  O2_19
REMARK   10  A    between atoms: C9_21  and  C11_22
REMARK   11  A    between atoms: C17_25  and  O4_28
REMARK   12  A    between atoms: C15_26  and  O3_30
REMARK                            x       y       z     vdW  Elec       q    Type
REMARK                         _______ _______ _______ _____ _____    ______ ____
ROOT
ATOM      1  C10 UNK     0      -1.868  -2.737  -0.670  0.00  0.00    +0.000 C 
ENDROOT
BRANCH   1   2
ATOM      2  C14 UNK     0      -2.683  -3.443   0.373  0.00  0.00    +0.000 C 
ATOM      3  O5  UNK     0      -3.329  -4.482   0.069  0.00  0.00    +0.000 OA
BRANCH   2   4
ATOM      4  O2  UNK     0      -2.765  -2.930   1.664  0.00  0.00    +0.000 OA
ATOM      5  H38 UNK     0      -3.329  -3.386   2.370  0.00  0.00    +0.000 HD
ENDBRANCH   2   4
ENDBRANCH   1   2
BRANCH   1   6
ATOM      6  O1  UNK     0      -0.785  -2.050  -0.039  0.00  0.00    +0.000 OA
BRANCH   6   7
ATOM      7  C18 UNK     0       0.338  -1.576  -0.726  0.00  0.00    +0.000 C 
ATOM      8  O6  UNK     0       0.492  -1.828  -1.954  0.00  0.00    +0.000 OA
BRANCH   7   9
ATOM      9  C20 UNK     0       1.327  -0.771   0.008  0.00  0.00    +0.000 C 
ATOM     10  C21 UNK     0       2.430  -0.283  -0.577  0.00  0.00    +0.000 C 
BRANCH  10  11
ATOM     11  C19 UNK     0       3.446   0.532   0.134  0.00  0.00    +0.000 A 
ATOM     12  C22 UNK     0       4.740   0.617  -0.406  0.00  0.00    +0.000 A 
ATOM     13  C24 UNK     0       5.731   1.384   0.223  0.00  0.00    +0.000 A 
ATOM     14  C26 UNK     0       5.428   2.085   1.401  0.00  0.00    +0.000 A 
ATOM     15  C25 UNK     0       4.138   2.018   1.935  0.00  0.00    +0.000 A 
ATOM     16  C23 UNK     0       3.151   1.253   1.308  0.00  0.00    +0.000 A 
BRANCH  13  17
ATOM     17  O7  UNK     0       7.014   1.451  -0.318  0.00  0.00    +0.000 OA
ATOM     18  H41 UNK     0       7.259   0.954  -1.167  0.00  0.00    +0.000 HD
ENDBRANCH  13  17
BRANCH  14  19
ATOM     19  O8  UNK     0       6.392   2.855   2.051  0.00  0.00    +0.000 OA
ATOM     20  H42 UNK     0       7.340   2.936   1.704  0.00  0.00    +0.000 HD
ENDBRANCH  14  19
ENDBRANCH  10  11
ENDBRANCH   7   9
ENDBRANCH   6   7
ENDBRANCH   1   6
BRANCH   1  21
ATOM     21  C9  UNK     0      -2.740  -1.761  -1.486  0.00  0.00    +0.000 C 
BRANCH  21  22
ATOM     22  C11 UNK     0      -3.246  -0.603  -0.660  0.00  0.00    +0.000 A 
ATOM     23  C13 UNK     0      -4.477  -0.692   0.009  0.00  0.00    +0.000 A 
ATOM     24  C16 UNK     0      -4.928   0.367   0.799  0.00  0.00    +0.000 A 
ATOM     25  C17 UNK     0      -4.155   1.528   0.934  0.00  0.00    +0.000 A 
ATOM     26  C15 UNK     0      -2.921   1.625   0.269  0.00  0.00    +0.000 A 
ATOM     27  C12 UNK     0      -2.473   0.562  -0.524  0.00  0.00    +0.000 A 
BRANCH  25  28
ATOM     28  O4  UNK     0      -4.608   2.583   1.725  0.00  0.00    +0.000 OA
ATOM     29  H40 UNK     0      -5.494   2.537   2.215  0.00  0.00    +0.000 HD
ENDBRANCH  25  28
BRANCH  26  30
ATOM     30  O3  UNK     0      -2.128   2.766   0.383  0.00  0.00    +0.000 OA
ATOM     31  H39 UNK     0      -2.406   3.561   0.945  0.00  0.00    +0.000 HD
ENDBRANCH  26  30
ENDBRANCH  21  22
ENDBRANCH   1  21
TORSDOF 12
