REMARK  Name = C:\Users\Maximilian\Desktop\Conformers\converted_pdb\conformers_pdb\Rosmarinic Acid_conf_9.pdb
REMARK  12 active torsions:
REMARK  status: ('A' for Active; 'I' for Inactive)
REMARK    1  A    between atoms: C10_1  and  O1_2
REMARK    2  A    between atoms: C10_1  and  C14_17
REMARK    3  A    between atoms: C10_1  and  C9_21
REMARK    4  A    between atoms: O1_2  and  C18_3
REMARK    5  A    between atoms: C18_3  and  C20_5
REMARK    6  A    between atoms: C21_6  and  C19_7
REMARK    7  A    between atoms: C24_9  and  O7_13
REMARK    8  A    between atoms: C26_10  and  O8_15
REMARK    9  A    between atoms: C14_17  and  O2_19
REMARK   10  A    between atoms: C9_21  and  C11_22
REMARK   11  A    between atoms: C17_25  and  O4_28
REMARK   12  A    between atoms: C15_26  and  O3_30
REMARK                            x       y       z     vdW  Elec       q    Type
REMARK                         _______ _______ _______ _____ _____    ______ ____
ROOT
ATOM      1  C10 UNK     0      -1.468  -0.670   0.459  0.00  0.00    +0.000 C 
ENDROOT
BRANCH   1   2
ATOM      2  C14 UNK     0      -1.780  -0.691   1.927  0.00  0.00    +0.000 C 
ATOM      3  O5  UNK     0      -1.212   0.118   2.709  0.00  0.00    +0.000 OA
BRANCH   2   4
ATOM      4  O2  UNK     0      -2.732  -1.579   2.419  0.00  0.00    +0.000 OA
ATOM      5  H38 UNK     0      -2.969  -1.593   3.404  0.00  0.00    +0.000 HD
ENDBRANCH   2   4
ENDBRANCH   1   2
BRANCH   1   6
ATOM      6  O1  UNK     0      -0.052  -0.577   0.293  0.00  0.00    +0.000 OA
BRANCH   6   7
ATOM      7  C18 UNK     0       0.610  -0.886  -0.903  0.00  0.00    +0.000 C 
ATOM      8  O6  UNK     0      -0.032  -1.325  -1.895  0.00  0.00    +0.000 OA
BRANCH   7   9
ATOM      9  C20 UNK     0       2.066  -0.711  -1.014  0.00  0.00    +0.000 C 
ATOM     10  C21 UNK     0       2.800  -0.225  -0.003  0.00  0.00    +0.000 C 
BRANCH  10  11
ATOM     11  C19 UNK     0       4.268  -0.020  -0.074  0.00  0.00    +0.000 A 
ATOM     12  C22 UNK     0       4.866   0.871   0.833  0.00  0.00    +0.000 A 
ATOM     13  C24 UNK     0       6.248   1.094   0.814  0.00  0.00    +0.000 A 
ATOM     14  C26 UNK     0       7.053   0.412  -0.112  0.00  0.00    +0.000 A 
ATOM     15  C25 UNK     0       6.466  -0.490  -1.009  0.00  0.00    +0.000 A 
ATOM     16  C23 UNK     0       5.086  -0.710  -0.989  0.00  0.00    +0.000 A 
BRANCH  13  17
ATOM     17  O7  UNK     0       6.801   1.994   1.725  0.00  0.00    +0.000 OA
ATOM     18  H41 UNK     0       7.794   2.189   1.752  0.00  0.00    +0.000 HD
ENDBRANCH  13  17
BRANCH  14  19
ATOM     19  O8  UNK     0       8.429   0.630  -0.137  0.00  0.00    +0.000 OA
ATOM     20  H42 UNK     0       9.031   0.149  -0.796  0.00  0.00    +0.000 HD
ENDBRANCH  14  19
ENDBRANCH  10  11
ENDBRANCH   7   9
ENDBRANCH   6   7
ENDBRANCH   1   6
BRANCH   1  21
ATOM     21  C9  UNK     0      -2.161   0.521  -0.229  0.00  0.00    +0.000 C 
BRANCH  21  22
ATOM     22  C11 UNK     0      -3.662   0.382  -0.204  0.00  0.00    +0.000 A 
ATOM     23  C13 UNK     0      -4.309  -0.438  -1.142  0.00  0.00    +0.000 A 
ATOM     24  C16 UNK     0      -5.697  -0.593  -1.102  0.00  0.00    +0.000 A 
ATOM     25  C17 UNK     0      -6.454   0.062  -0.121  0.00  0.00    +0.000 A 
ATOM     26  C15 UNK     0      -5.811   0.877   0.827  0.00  0.00    +0.000 A 
ATOM     27  C12 UNK     0      -4.421   1.031   0.783  0.00  0.00    +0.000 A 
BRANCH  25  28
ATOM     28  O4  UNK     0      -7.839  -0.095  -0.084  0.00  0.00    +0.000 OA
ATOM     29  H40 UNK     0      -8.325  -0.678  -0.755  0.00  0.00    +0.000 HD
ENDBRANCH  25  28
BRANCH  26  30
ATOM     30  O3  UNK     0      -6.535   1.538   1.818  0.00  0.00    +0.000 OA
ATOM     31  H39 UNK     0      -7.542   1.458   1.893  0.00  0.00    +0.000 HD
ENDBRANCH  26  30
ENDBRANCH  21  22
ENDBRANCH   1  21
TORSDOF 12
