REMARK  Name = C:\Users\Maximilian\Desktop\Conformers\converted_pdb\conformers_pdb\Rosmarinic Acid_conf_6.pdb
REMARK  12 active torsions:
REMARK  status: ('A' for Active; 'I' for Inactive)
REMARK    1  A    between atoms: C10_1  and  O1_2
REMARK    2  A    between atoms: C10_1  and  C14_17
REMARK    3  A    between atoms: C10_1  and  C9_21
REMARK    4  A    between atoms: O1_2  and  C18_3
REMARK    5  A    between atoms: C18_3  and  C20_5
REMARK    6  A    between atoms: C21_6  and  C19_7
REMARK    7  A    between atoms: C24_9  and  O7_13
REMARK    8  A    between atoms: C26_10  and  O8_15
REMARK    9  A    between atoms: C14_17  and  O2_19
REMARK   10  A    between atoms: C9_21  and  C11_22
REMARK   11  A    between atoms: C17_25  and  O4_28
REMARK   12  A    between atoms: C15_26  and  O3_30
REMARK                            x       y       z     vdW  Elec       q    Type
REMARK                         _______ _______ _______ _____ _____    ______ ____
ROOT
ATOM      1  C10 UNK     0      -1.606  -0.065  -0.093  0.00  0.00    +0.000 C 
ENDROOT
BRANCH   1   2
ATOM      2  C14 UNK     0      -1.923  -0.191  -1.558  0.00  0.00    +0.000 C 
ATOM      3  O5  UNK     0      -1.435  -1.135  -2.235  0.00  0.00    +0.000 OA
BRANCH   2   4
ATOM      4  O2  UNK     0      -2.789   0.718  -2.158  0.00  0.00    +0.000 OA
ATOM      5  H38 UNK     0      -3.027   0.638  -3.139  0.00  0.00    +0.000 HD
ENDBRANCH   2   4
ENDBRANCH   1   2
BRANCH   1   6
ATOM      6  O1  UNK     0      -0.206  -0.251   0.121  0.00  0.00    +0.000 OA
BRANCH   6   7
ATOM      7  C18 UNK     0       0.764   0.677  -0.275  0.00  0.00    +0.000 C 
ATOM      8  O6  UNK     0       0.425   1.756  -0.837  0.00  0.00    +0.000 OA
BRANCH   7   9
ATOM      9  C20 UNK     0       2.182   0.372  -0.024  0.00  0.00    +0.000 C 
ATOM     10  C21 UNK     0       3.167   1.220  -0.353  0.00  0.00    +0.000 C 
BRANCH  10  11
ATOM     11  C19 UNK     0       4.604   0.949  -0.104  0.00  0.00    +0.000 A 
ATOM     12  C22 UNK     0       5.114  -0.355   0.058  0.00  0.00    +0.000 A 
ATOM     13  C24 UNK     0       6.483  -0.563   0.280  0.00  0.00    +0.000 A 
ATOM     14  C26 UNK     0       7.356   0.530   0.333  0.00  0.00    +0.000 A 
ATOM     15  C25 UNK     0       6.859   1.827   0.157  0.00  0.00    +0.000 A 
ATOM     16  C23 UNK     0       5.495   2.034  -0.066  0.00  0.00    +0.000 A 
BRANCH  13  17
ATOM     17  O7  UNK     0       6.984  -1.853   0.444  0.00  0.00    +0.000 OA
ATOM     18  H41 UNK     0       6.379  -2.665   0.410  0.00  0.00    +0.000 HD
ENDBRANCH  13  17
BRANCH  14  19
ATOM     19  O8  UNK     0       8.716   0.320   0.557  0.00  0.00    +0.000 OA
ATOM     20  H42 UNK     0       9.372   1.091   0.600  0.00  0.00    +0.000 HD
ENDBRANCH  14  19
ENDBRANCH  10  11
ENDBRANCH   7   9
ENDBRANCH   6   7
ENDBRANCH   1   6
BRANCH   1  21
ATOM     21  C9  UNK     0      -2.377  -1.110   0.726  0.00  0.00    +0.000 C 
BRANCH  21  22
ATOM     22  C11 UNK     0      -3.866  -0.872   0.679  0.00  0.00    +0.000 A 
ATOM     23  C13 UNK     0      -4.454   0.090   1.515  0.00  0.00    +0.000 A 
ATOM     24  C16 UNK     0      -5.828   0.335   1.450  0.00  0.00    +0.000 A 
ATOM     25  C17 UNK     0      -6.630  -0.372   0.544  0.00  0.00    +0.000 A 
ATOM     26  C15 UNK     0      -6.046  -1.330  -0.303  0.00  0.00    +0.000 A 
ATOM     27  C12 UNK     0      -4.670  -1.574  -0.234  0.00  0.00    +0.000 A 
BRANCH  25  28
ATOM     28  O4  UNK     0      -8.000  -0.125   0.481  0.00  0.00    +0.000 OA
ATOM     29  H40 UNK     0      -8.444   0.561   1.081  0.00  0.00    +0.000 HD
ENDBRANCH  25  28
BRANCH  26  30
ATOM     30  O3  UNK     0      -6.816  -2.047  -1.218  0.00  0.00    +0.000 OA
ATOM     31  H39 UNK     0      -7.815  -1.907  -1.307  0.00  0.00    +0.000 HD
ENDBRANCH  26  30
ENDBRANCH  21  22
ENDBRANCH   1  21
TORSDOF 12
