REMARK  Name = C:\Users\Maximilian\Desktop\Conformers\converted_pdb\conformers_pdb\Rosmarinic Acid_conf_1.pdb
REMARK  12 active torsions:
REMARK  status: ('A' for Active; 'I' for Inactive)
REMARK    1  A    between atoms: C10_1  and  O1_2
REMARK    2  A    between atoms: C10_1  and  C14_17
REMARK    3  A    between atoms: C10_1  and  C9_21
REMARK    4  A    between atoms: O1_2  and  C18_3
REMARK    5  A    between atoms: C18_3  and  C20_5
REMARK    6  A    between atoms: C21_6  and  C19_7
REMARK    7  A    between atoms: C24_9  and  O7_13
REMARK    8  A    between atoms: C26_10  and  O8_15
REMARK    9  A    between atoms: C14_17  and  O2_19
REMARK   10  A    between atoms: C9_21  and  C11_22
REMARK   11  A    between atoms: C17_25  and  O4_28
REMARK   12  A    between atoms: C15_26  and  O3_30
REMARK                            x       y       z     vdW  Elec       q    Type
REMARK                         _______ _______ _______ _____ _____    ______ ____
ROOT
ATOM      1  C10 UNK     0      -1.691  -0.088   0.063  0.00  0.00    +0.000 C 
ENDROOT
BRANCH   1   2
ATOM      2  C14 UNK     0      -1.984  -1.168   1.068  0.00  0.00    +0.000 C 
ATOM      3  O5  UNK     0      -1.571  -1.060   2.254  0.00  0.00    +0.000 OA
BRANCH   2   4
ATOM      4  O2  UNK     0      -2.744  -2.271   0.694  0.00  0.00    +0.000 OA
ATOM      5  H38 UNK     0      -2.965  -3.000   1.363  0.00  0.00    +0.000 HD
ENDBRANCH   2   4
ENDBRANCH   1   2
BRANCH   1   6
ATOM      6  O1  UNK     0      -0.321   0.304   0.152  0.00  0.00    +0.000 OA
BRANCH   6   7
ATOM      7  C18 UNK     0       0.741  -0.510  -0.259  0.00  0.00    +0.000 C 
ATOM      8  O6  UNK     0       0.519  -1.649  -0.756  0.00  0.00    +0.000 OA
BRANCH   7   9
ATOM      9  C20 UNK     0       2.117  -0.013  -0.100  0.00  0.00    +0.000 C 
ATOM     10  C21 UNK     0       3.186  -0.723  -0.490  0.00  0.00    +0.000 C 
BRANCH  10  11
ATOM     11  C19 UNK     0       4.585  -0.249  -0.355  0.00  0.00    +0.000 A 
ATOM     12  C22 UNK     0       5.575  -0.837  -1.160  0.00  0.00    +0.000 A 
ATOM     13  C24 UNK     0       6.914  -0.430  -1.063  0.00  0.00    +0.000 A 
ATOM     14  C26 UNK     0       7.275   0.569  -0.145  0.00  0.00    +0.000 A 
ATOM     15  C25 UNK     0       6.297   1.147   0.670  0.00  0.00    +0.000 A 
ATOM     16  C23 UNK     0       4.963   0.741   0.573  0.00  0.00    +0.000 A 
BRANCH  13  17
ATOM     17  O7  UNK     0       7.884  -1.015  -1.875  0.00  0.00    +0.000 OA
ATOM     18  H41 UNK     0       7.650  -1.738  -2.546  0.00  0.00    +0.000 HD
ENDBRANCH  13  17
BRANCH  14  19
ATOM     19  O8  UNK     0       8.597   0.996  -0.025  0.00  0.00    +0.000 OA
ATOM     20  H42 UNK     0       9.341   0.608  -0.592  0.00  0.00    +0.000 HD
ENDBRANCH  14  19
ENDBRANCH  10  11
ENDBRANCH   7   9
ENDBRANCH   6   7
ENDBRANCH   1   6
BRANCH   1  21
ATOM     21  C9  UNK     0      -2.578   1.142   0.308  0.00  0.00    +0.000 C 
BRANCH  21  22
ATOM     22  C11 UNK     0      -4.036   0.840   0.068  0.00  0.00    +0.000 A 
ATOM     23  C13 UNK     0      -4.880   0.519   1.143  0.00  0.00    +0.000 A 
ATOM     24  C16 UNK     0      -6.223   0.207   0.915  0.00  0.00    +0.000 A 
ATOM     25  C17 UNK     0      -6.736   0.206  -0.390  0.00  0.00    +0.000 A 
ATOM     26  C15 UNK     0      -5.898   0.517  -1.468  0.00  0.00    +0.000 A 
ATOM     27  C12 UNK     0      -4.550   0.829  -1.238  0.00  0.00    +0.000 A 
BRANCH  25  28
ATOM     28  O4  UNK     0      -8.075  -0.104  -0.621  0.00  0.00    +0.000 OA
ATOM     29  H40 UNK     0      -8.705  -0.333   0.138  0.00  0.00    +0.000 HD
ENDBRANCH  25  28
BRANCH  26  30
ATOM     30  O3  UNK     0      -6.409   0.511  -2.765  0.00  0.00    +0.000 OA
ATOM     31  H39 UNK     0      -5.827   0.730  -3.565  0.00  0.00    +0.000 HD
ENDBRANCH  26  30
ENDBRANCH  21  22
ENDBRANCH   1  21
TORSDOF 12
