REMARK  Name = C:\Users\Maximilian\Desktop\Conformers\converted_pdb\conformers_pdb\Rosmarinic Acid_conf_8.pdb
REMARK  12 active torsions:
REMARK  status: ('A' for Active; 'I' for Inactive)
REMARK    1  A    between atoms: C10_1  and  O1_2
REMARK    2  A    between atoms: C10_1  and  C14_17
REMARK    3  A    between atoms: C10_1  and  C9_21
REMARK    4  A    between atoms: O1_2  and  C18_3
REMARK    5  A    between atoms: C18_3  and  C20_5
REMARK    6  A    between atoms: C21_6  and  C19_7
REMARK    7  A    between atoms: C24_9  and  O7_13
REMARK    8  A    between atoms: C26_10  and  O8_15
REMARK    9  A    between atoms: C14_17  and  O2_19
REMARK   10  A    between atoms: C9_21  and  C11_22
REMARK   11  A    between atoms: C17_25  and  O4_28
REMARK   12  A    between atoms: C15_26  and  O3_30
REMARK                            x       y       z     vdW  Elec       q    Type
REMARK                         _______ _______ _______ _____ _____    ______ ____
ROOT
ATOM      1  C10 UNK     0      -1.534   0.451  -0.308  0.00  0.00    +0.000 C 
ENDROOT
BRANCH   1   2
ATOM      2  C14 UNK     0      -1.932   0.327  -1.753  0.00  0.00    +0.000 C 
ATOM      3  O5  UNK     0      -1.362  -0.514  -2.499  0.00  0.00    +0.000 OA
BRANCH   2   4
ATOM      4  O2  UNK     0      -2.960   1.118  -2.257  0.00  0.00    +0.000 OA
ATOM      5  H38 UNK     0      -3.252   1.035  -3.223  0.00  0.00    +0.000 HD
ENDBRANCH   2   4
ENDBRANCH   1   2
BRANCH   1   6
ATOM      6  O1  UNK     0      -0.111   0.465  -0.193  0.00  0.00    +0.000 OA
BRANCH   6   7
ATOM      7  C18 UNK     0       0.687   1.537  -0.612  0.00  0.00    +0.000 C 
ATOM      8  O6  UNK     0       0.160   2.573  -1.100  0.00  0.00    +0.000 OA
BRANCH   7   9
ATOM      9  C20 UNK     0       2.151   1.471  -0.485  0.00  0.00    +0.000 C 
ATOM     10  C21 UNK     0       2.771   0.386   0.001  0.00  0.00    +0.000 C 
BRANCH  10  11
ATOM     11  C19 UNK     0       4.244   0.269   0.136  0.00  0.00    +0.000 A 
ATOM     12  C22 UNK     0       4.810  -1.013   0.233  0.00  0.00    +0.000 A 
ATOM     13  C24 UNK     0       6.196  -1.176   0.371  0.00  0.00    +0.000 A 
ATOM     14  C26 UNK     0       7.030  -0.048   0.424  0.00  0.00    +0.000 A 
ATOM     15  C25 UNK     0       6.471   1.231   0.344  0.00  0.00    +0.000 A 
ATOM     16  C23 UNK     0       5.090   1.393   0.206  0.00  0.00    +0.000 A 
BRANCH  13  17
ATOM     17  O7  UNK     0       6.746  -2.455   0.457  0.00  0.00    +0.000 OA
ATOM     18  H41 UNK     0       6.166  -3.285   0.421  0.00  0.00    +0.000 HD
ENDBRANCH  13  17
BRANCH  14  19
ATOM     19  O8  UNK     0       8.412  -0.177   0.561  0.00  0.00    +0.000 OA
ATOM     20  H42 UNK     0       8.864  -1.081   0.624  0.00  0.00    +0.000 HD
ENDBRANCH  14  19
ENDBRANCH  10  11
ENDBRANCH   7   9
ENDBRANCH   6   7
ENDBRANCH   1   6
BRANCH   1  21
ATOM     21  C9  UNK     0      -2.088  -0.721   0.515  0.00  0.00    +0.000 C 
BRANCH  21  22
ATOM     22  C11 UNK     0      -3.595  -0.702   0.574  0.00  0.00    +0.000 A 
ATOM     23  C13 UNK     0      -4.350  -1.491  -0.307  0.00  0.00    +0.000 A 
ATOM     24  C16 UNK     0      -5.746  -1.447  -0.272  0.00  0.00    +0.000 A 
ATOM     25  C17 UNK     0      -6.405  -0.613   0.637  0.00  0.00    +0.000 A 
ATOM     26  C15 UNK     0      -5.657   0.188   1.518  0.00  0.00    +0.000 A 
ATOM     27  C12 UNK     0      -4.256   0.142   1.481  0.00  0.00    +0.000 A 
BRANCH  25  28
ATOM     28  O4  UNK     0      -7.799  -0.590   0.650  0.00  0.00    +0.000 OA
ATOM     29  H40 UNK     0      -8.322  -0.003   1.288  0.00  0.00    +0.000 HD
ENDBRANCH  25  28
BRANCH  26  30
ATOM     30  O3  UNK     0      -6.307   1.025   2.423  0.00  0.00    +0.000 OA
ATOM     31  H39 UNK     0      -5.791   1.613   3.068  0.00  0.00    +0.000 HD
ENDBRANCH  26  30
ENDBRANCH  21  22
ENDBRANCH   1  21
TORSDOF 12
