REMARK  Name = C:\Users\Maximilian\Desktop\Conformers\converted_pdb\conformers_pdb\Rosmarinic Acid_conf_5.pdb
REMARK  12 active torsions:
REMARK  status: ('A' for Active; 'I' for Inactive)
REMARK    1  A    between atoms: C10_1  and  O1_2
REMARK    2  A    between atoms: C10_1  and  C14_17
REMARK    3  A    between atoms: C10_1  and  C9_21
REMARK    4  A    between atoms: O1_2  and  C18_3
REMARK    5  A    between atoms: C18_3  and  C20_5
REMARK    6  A    between atoms: C21_6  and  C19_7
REMARK    7  A    between atoms: C24_9  and  O7_13
REMARK    8  A    between atoms: C26_10  and  O8_15
REMARK    9  A    between atoms: C14_17  and  O2_19
REMARK   10  A    between atoms: C9_21  and  C11_22
REMARK   11  A    between atoms: C17_25  and  O4_28
REMARK   12  A    between atoms: C15_26  and  O3_30
REMARK                            x       y       z     vdW  Elec       q    Type
REMARK                         _______ _______ _______ _____ _____    ______ ____
ROOT
ATOM      1  C10 UNK     0      -1.863  -2.269   1.233  0.00  0.00    +0.000 C 
ENDROOT
BRANCH   1   2
ATOM      2  C14 UNK     0      -1.672  -3.283   2.320  0.00  0.00    +0.000 C 
ATOM      3  O5  UNK     0      -0.886  -3.048   3.278  0.00  0.00    +0.000 OA
BRANCH   2   4
ATOM      4  O2  UNK     0      -2.397  -4.470   2.294  0.00  0.00    +0.000 OA
ATOM      5  H38 UNK     0      -2.291  -5.160   3.028  0.00  0.00    +0.000 HD
ENDBRANCH   2   4
ENDBRANCH   1   2
BRANCH   1   6
ATOM      6  O1  UNK     0      -0.589  -1.722   0.882  0.00  0.00    +0.000 OA
BRANCH   6   7
ATOM      7  C18 UNK     0      -0.252  -1.285  -0.407  0.00  0.00    +0.000 C 
ATOM      8  O6  UNK     0      -1.031  -1.488  -1.377  0.00  0.00    +0.000 OA
BRANCH   7   9
ATOM      9  C20 UNK     0       1.018  -0.583  -0.646  0.00  0.00    +0.000 C 
ATOM     10  C21 UNK     0       1.855  -0.278   0.354  0.00  0.00    +0.000 C 
BRANCH  10  11
ATOM     11  C19 UNK     0       3.134   0.450   0.164  0.00  0.00    +0.000 A 
ATOM     12  C22 UNK     0       3.814   0.479  -1.070  0.00  0.00    +0.000 A 
ATOM     13  C24 UNK     0       5.026   1.172  -1.199  0.00  0.00    +0.000 A 
ATOM     14  C26 UNK     0       5.573   1.836  -0.095  0.00  0.00    +0.000 A 
ATOM     15  C25 UNK     0       4.910   1.799   1.138  0.00  0.00    +0.000 A 
ATOM     16  C23 UNK     0       3.703   1.107   1.267  0.00  0.00    +0.000 A 
BRANCH  13  17
ATOM     17  O7  UNK     0       5.695   1.202  -2.422  0.00  0.00    +0.000 OA
ATOM     18  H41 UNK     0       5.327   0.731  -3.240  0.00  0.00    +0.000 HD
ENDBRANCH  13  17
BRANCH  14  19
ATOM     19  O8  UNK     0       6.776   2.527  -0.229  0.00  0.00    +0.000 OA
ATOM     20  H42 UNK     0       7.197   3.015   0.553  0.00  0.00    +0.000 HD
ENDBRANCH  14  19
ENDBRANCH  10  11
ENDBRANCH   7   9
ENDBRANCH   6   7
ENDBRANCH   1   6
BRANCH   1  21
ATOM     21  C9  UNK     0      -2.810  -1.160   1.724  0.00  0.00    +0.000 C 
BRANCH  21  22
ATOM     22  C11 UNK     0      -3.102  -0.154   0.642  0.00  0.00    +0.000 A 
ATOM     23  C13 UNK     0      -2.388   1.053   0.582  0.00  0.00    +0.000 A 
ATOM     24  C16 UNK     0      -2.631   1.965  -0.449  0.00  0.00    +0.000 A 
ATOM     25  C17 UNK     0      -3.587   1.680  -1.432  0.00  0.00    +0.000 A 
ATOM     26  C15 UNK     0      -4.301   0.475  -1.382  0.00  0.00    +0.000 A 
ATOM     27  C12 UNK     0      -4.057  -0.440  -0.348  0.00  0.00    +0.000 A 
BRANCH  25  28
ATOM     28  O4  UNK     0      -3.832   2.586  -2.463  0.00  0.00    +0.000 OA
ATOM     29  H40 UNK     0      -3.331   3.464  -2.526  0.00  0.00    +0.000 HD
ENDBRANCH  25  28
BRANCH  26  30
ATOM     30  O3  UNK     0      -5.249   0.193  -2.364  0.00  0.00    +0.000 OA
ATOM     31  H39 UNK     0      -5.780  -0.670  -2.355  0.00  0.00    +0.000 HD
ENDBRANCH  26  30
ENDBRANCH  21  22
ENDBRANCH   1  21
TORSDOF 12
