REMARK  Name = C:\Users\Maximilian\Desktop\Conformers\converted_pdb\conformers_pdb\Rosmarinic Acid_conf_27.pdb
REMARK  12 active torsions:
REMARK  status: ('A' for Active; 'I' for Inactive)
REMARK    1  A    between atoms: C10_1  and  O1_2
REMARK    2  A    between atoms: C10_1  and  C14_17
REMARK    3  A    between atoms: C10_1  and  C9_21
REMARK    4  A    between atoms: O1_2  and  C18_3
REMARK    5  A    between atoms: C18_3  and  C20_5
REMARK    6  A    between atoms: C21_6  and  C19_7
REMARK    7  A    between atoms: C24_9  and  O7_13
REMARK    8  A    between atoms: C26_10  and  O8_15
REMARK    9  A    between atoms: C14_17  and  O2_19
REMARK   10  A    between atoms: C9_21  and  C11_22
REMARK   11  A    between atoms: C17_25  and  O4_28
REMARK   12  A    between atoms: C15_26  and  O3_30
REMARK                            x       y       z     vdW  Elec       q    Type
REMARK                         _______ _______ _______ _____ _____    ______ ____
ROOT
ATOM      1  C10 UNK     0      -1.843   2.612   0.506  0.00  0.00    +0.000 C 
ENDROOT
BRANCH   1   2
ATOM      2  C14 UNK     0      -2.714   3.065  -0.630  0.00  0.00    +0.000 C 
ATOM      3  O5  UNK     0      -2.760   2.405  -1.703  0.00  0.00    +0.000 OA
BRANCH   2   4
ATOM      4  O2  UNK     0      -3.510   4.197  -0.479  0.00  0.00    +0.000 OA
ATOM      5  H38 UNK     0      -4.118   4.508  -1.227  0.00  0.00    +0.000 HD
ENDBRANCH   2   4
ENDBRANCH   1   2
BRANCH   1   6
ATOM      6  O1  UNK     0      -0.733   1.870  -0.005  0.00  0.00    +0.000 OA
BRANCH   6   7
ATOM      7  C18 UNK     0       0.424   1.602   0.734  0.00  0.00    +0.000 C 
ATOM      8  O6  UNK     0       0.578   2.094   1.886  0.00  0.00    +0.000 OA
BRANCH   7   9
ATOM      9  C20 UNK     0       1.453   0.731   0.143  0.00  0.00    +0.000 C 
ATOM     10  C21 UNK     0       2.592   0.431   0.783  0.00  0.00    +0.000 C 
BRANCH  10  11
ATOM     11  C19 UNK     0       3.650  -0.442   0.216  0.00  0.00    +0.000 A 
ATOM     12  C22 UNK     0       4.952  -0.345   0.734  0.00  0.00    +0.000 A 
ATOM     13  C24 UNK     0       5.982  -1.156   0.238  0.00  0.00    +0.000 A 
ATOM     14  C26 UNK     0       5.714  -2.082  -0.777  0.00  0.00    +0.000 A 
ATOM     15  C25 UNK     0       4.416  -2.197  -1.289  0.00  0.00    +0.000 A 
ATOM     16  C23 UNK     0       3.388  -1.388  -0.795  0.00  0.00    +0.000 A 
BRANCH  13  17
ATOM     17  O7  UNK     0       7.274  -1.048   0.749  0.00  0.00    +0.000 OA
ATOM     18  H41 UNK     0       7.500  -0.387   1.484  0.00  0.00    +0.000 HD
ENDBRANCH  13  17
BRANCH  14  19
ATOM     19  O8  UNK     0       6.741  -2.886  -1.269  0.00  0.00    +0.000 OA
ATOM     20  H42 UNK     0       6.577  -3.566  -2.002  0.00  0.00    +0.000 HD
ENDBRANCH  14  19
ENDBRANCH  10  11
ENDBRANCH   7   9
ENDBRANCH   6   7
ENDBRANCH   1   6
BRANCH   1  21
ATOM     21  C9  UNK     0      -2.650   1.776   1.520  0.00  0.00    +0.000 C 
BRANCH  21  22
ATOM     22  C11 UNK     0      -3.110   0.456   0.950  0.00  0.00    +0.000 A 
ATOM     23  C13 UNK     0      -2.284  -0.676   1.027  0.00  0.00    +0.000 A 
ATOM     24  C16 UNK     0      -2.698  -1.890   0.473  0.00  0.00    +0.000 A 
ATOM     25  C17 UNK     0      -3.939  -1.990  -0.164  0.00  0.00    +0.000 A 
ATOM     26  C15 UNK     0      -4.773  -0.862  -0.248  0.00  0.00    +0.000 A 
ATOM     27  C12 UNK     0      -4.355   0.355   0.309  0.00  0.00    +0.000 A 
BRANCH  25  28
ATOM     28  O4  UNK     0      -4.325  -3.215  -0.708  0.00  0.00    +0.000 OA
ATOM     29  H40 UNK     0      -5.213  -3.338  -1.179  0.00  0.00    +0.000 HD
ENDBRANCH  25  28
BRANCH  26  30
ATOM     30  O3  UNK     0      -6.010  -0.954  -0.884  0.00  0.00    +0.000 OA
ATOM     31  H39 UNK     0      -6.629  -0.155  -0.958  0.00  0.00    +0.000 HD
ENDBRANCH  26  30
ENDBRANCH  21  22
ENDBRANCH   1  21
TORSDOF 12
