REMARK  Name = C:\Users\Maximilian\Desktop\Conformers\converted_pdb\conformers_pdb\Rosmarinic Acid_conf_29.pdb
REMARK  12 active torsions:
REMARK  status: ('A' for Active; 'I' for Inactive)
REMARK    1  A    between atoms: C10_1  and  O1_2
REMARK    2  A    between atoms: C10_1  and  C14_17
REMARK    3  A    between atoms: C10_1  and  C9_21
REMARK    4  A    between atoms: O1_2  and  C18_3
REMARK    5  A    between atoms: C18_3  and  C20_5
REMARK    6  A    between atoms: C21_6  and  C19_7
REMARK    7  A    between atoms: C24_9  and  O7_13
REMARK    8  A    between atoms: C26_10  and  O8_15
REMARK    9  A    between atoms: C14_17  and  O2_19
REMARK   10  A    between atoms: C9_21  and  C11_22
REMARK   11  A    between atoms: C17_25  and  O4_28
REMARK   12  A    between atoms: C15_26  and  O3_30
REMARK                            x       y       z     vdW  Elec       q    Type
REMARK                         _______ _______ _______ _____ _____    ______ ____
ROOT
ATOM      1  C10 UNK     0       2.195  -1.941  -1.614  0.00  0.00    +0.000 C 
ENDROOT
BRANCH   1   2
ATOM      2  C14 UNK     0       2.053  -2.789  -2.843  0.00  0.00    +0.000 C 
ATOM      3  O5  UNK     0       2.738  -3.840  -2.967  0.00  0.00    +0.000 OA
BRANCH   2   4
ATOM      4  O2  UNK     0       1.193  -2.397  -3.865  0.00  0.00    +0.000 OA
ATOM      5  H38 UNK     0       1.097  -2.953  -4.706  0.00  0.00    +0.000 HD
ENDBRANCH   2   4
ENDBRANCH   1   2
BRANCH   1   6
ATOM      6  O1  UNK     0       0.914  -1.473  -1.191  0.00  0.00    +0.000 OA
BRANCH   6   7
ATOM      7  C18 UNK     0      -0.056  -2.293  -0.601  0.00  0.00    +0.000 C 
ATOM      8  O6  UNK     0       0.145  -3.531  -0.472  0.00  0.00    +0.000 OA
BRANCH   7   9
ATOM      9  C20 UNK     0      -1.318  -1.715  -0.116  0.00  0.00    +0.000 C 
ATOM     10  C21 UNK     0      -1.568  -0.401  -0.194  0.00  0.00    +0.000 C 
BRANCH  10  11
ATOM     11  C19 UNK     0      -2.823   0.233   0.281  0.00  0.00    +0.000 A 
ATOM     12  C22 UNK     0      -3.668  -0.373   1.232  0.00  0.00    +0.000 A 
ATOM     13  C24 UNK     0      -4.839   0.272   1.660  0.00  0.00    +0.000 A 
ATOM     14  C26 UNK     0      -5.169   1.536   1.145  0.00  0.00    +0.000 A 
ATOM     15  C25 UNK     0      -4.325   2.146   0.214  0.00  0.00    +0.000 A 
ATOM     16  C23 UNK     0      -3.159   1.505  -0.211  0.00  0.00    +0.000 A 
BRANCH  13  17
ATOM     17  O7  UNK     0      -5.671  -0.338   2.598  0.00  0.00    +0.000 OA
ATOM     18  H41 UNK     0      -5.456  -1.248   2.987  0.00  0.00    +0.000 HD
ENDBRANCH  13  17
BRANCH  14  19
ATOM     19  O8  UNK     0      -6.327   2.200   1.548  0.00  0.00    +0.000 OA
ATOM     20  H42 UNK     0      -6.970   1.800   2.221  0.00  0.00    +0.000 HD
ENDBRANCH  14  19
ENDBRANCH  10  11
ENDBRANCH   7   9
ENDBRANCH   6   7
ENDBRANCH   1   6
BRANCH   1  21
ATOM     21  C9  UNK     0       3.102  -0.740  -1.911  0.00  0.00    +0.000 C 
BRANCH  21  22
ATOM     22  C11 UNK     0       3.265   0.127  -0.689  0.00  0.00    +0.000 A 
ATOM     23  C13 UNK     0       4.256  -0.165   0.258  0.00  0.00    +0.000 A 
ATOM     24  C16 UNK     0       4.376   0.610   1.413  0.00  0.00    +0.000 A 
ATOM     25  C17 UNK     0       3.504   1.680   1.648  0.00  0.00    +0.000 A 
ATOM     26  C15 UNK     0       2.491   1.973   0.704  0.00  0.00    +0.000 A 
ATOM     27  C12 UNK     0       2.382   1.192  -0.453  0.00  0.00    +0.000 A 
BRANCH  25  28
ATOM     28  O4  UNK     0       3.678   2.417   2.822  0.00  0.00    +0.000 OA
ATOM     29  H40 UNK     0       3.108   3.209   3.080  0.00  0.00    +0.000 HD
ENDBRANCH  25  28
BRANCH  26  30
ATOM     30  O3  UNK     0       1.577   3.015   0.876  0.00  0.00    +0.000 OA
ATOM     31  H39 UNK     0       1.564   3.627   1.678  0.00  0.00    +0.000 HD
ENDBRANCH  26  30
ENDBRANCH  21  22
ENDBRANCH   1  21
TORSDOF 12
