REMARK  Name = C:\Users\Maximilian\Desktop\Conformers\converted_pdb\conformers_pdb\Rosmarinic Acid_conf_21.pdb
REMARK  12 active torsions:
REMARK  status: ('A' for Active; 'I' for Inactive)
REMARK    1  A    between atoms: C10_1  and  O1_2
REMARK    2  A    between atoms: C10_1  and  C14_17
REMARK    3  A    between atoms: C10_1  and  C9_21
REMARK    4  A    between atoms: O1_2  and  C18_3
REMARK    5  A    between atoms: C18_3  and  C20_5
REMARK    6  A    between atoms: C21_6  and  C19_7
REMARK    7  A    between atoms: C24_9  and  O7_13
REMARK    8  A    between atoms: C26_10  and  O8_15
REMARK    9  A    between atoms: C14_17  and  O2_19
REMARK   10  A    between atoms: C9_21  and  C11_22
REMARK   11  A    between atoms: C17_25  and  O4_28
REMARK   12  A    between atoms: C15_26  and  O3_30
REMARK                            x       y       z     vdW  Elec       q    Type
REMARK                         _______ _______ _______ _____ _____    ______ ____
ROOT
ATOM      1  C10 UNK     0      -2.003  -2.352  -1.027  0.00  0.00    +0.000 C 
ENDROOT
BRANCH   1   2
ATOM      2  C14 UNK     0      -2.329  -3.011   0.285  0.00  0.00    +0.000 C 
ATOM      3  O5  UNK     0      -2.825  -4.170   0.300  0.00  0.00    +0.000 OA
BRANCH   2   4
ATOM      4  O2  UNK     0      -2.129  -2.327   1.480  0.00  0.00    +0.000 OA
ATOM      5  H38 UNK     0      -2.364  -2.753   2.369  0.00  0.00    +0.000 HD
ENDBRANCH   2   4
ENDBRANCH   1   2
BRANCH   1   6
ATOM      6  O1  UNK     0      -0.909  -1.446  -0.876  0.00  0.00    +0.000 OA
BRANCH   6   7
ATOM      7  C18 UNK     0       0.406  -1.855  -0.627  0.00  0.00    +0.000 C 
ATOM      8  O6  UNK     0       0.691  -3.082  -0.551  0.00  0.00    +0.000 OA
BRANCH   7   9
ATOM      9  C20 UNK     0       1.444  -0.826  -0.453  0.00  0.00    +0.000 C 
ATOM     10  C21 UNK     0       2.729  -1.136  -0.229  0.00  0.00    +0.000 C 
BRANCH  10  11
ATOM     11  C19 UNK     0       3.802  -0.125  -0.059  0.00  0.00    +0.000 A 
ATOM     12  C22 UNK     0       3.538   1.201   0.342  0.00  0.00    +0.000 A 
ATOM     13  C24 UNK     0       4.583   2.119   0.502  0.00  0.00    +0.000 A 
ATOM     14  C26 UNK     0       5.909   1.719   0.270  0.00  0.00    +0.000 A 
ATOM     15  C25 UNK     0       6.177   0.399  -0.114  0.00  0.00    +0.000 A 
ATOM     16  C23 UNK     0       5.134  -0.516  -0.270  0.00  0.00    +0.000 A 
BRANCH  13  17
ATOM     17  O7  UNK     0       4.283   3.423   0.896  0.00  0.00    +0.000 OA
ATOM     18  H41 UNK     0       5.002   4.124   1.027  0.00  0.00    +0.000 HD
ENDBRANCH  13  17
BRANCH  14  19
ATOM     19  O8  UNK     0       6.952   2.630   0.424  0.00  0.00    +0.000 OA
ATOM     20  H42 UNK     0       7.917   2.365   0.263  0.00  0.00    +0.000 HD
ENDBRANCH  14  19
ENDBRANCH  10  11
ENDBRANCH   7   9
ENDBRANCH   6   7
ENDBRANCH   1   6
BRANCH   1  21
ATOM     21  C9  UNK     0      -3.223  -1.606  -1.591  0.00  0.00    +0.000 C 
BRANCH  21  22
ATOM     22  C11 UNK     0      -3.649  -0.448  -0.721  0.00  0.00    +0.000 A 
ATOM     23  C13 UNK     0      -4.646  -0.620   0.252  0.00  0.00    +0.000 A 
ATOM     24  C16 UNK     0      -5.018   0.444   1.077  0.00  0.00    +0.000 A 
ATOM     25  C17 UNK     0      -4.395   1.692   0.944  0.00  0.00    +0.000 A 
ATOM     26  C15 UNK     0      -3.392   1.871  -0.024  0.00  0.00    +0.000 A 
ATOM     27  C12 UNK     0      -3.024   0.803  -0.850  0.00  0.00    +0.000 A 
BRANCH  25  28
ATOM     28  O4  UNK     0      -4.767   2.752   1.770  0.00  0.00    +0.000 OA
ATOM     29  H40 UNK     0      -5.486   2.647   2.476  0.00  0.00    +0.000 HD
ENDBRANCH  25  28
BRANCH  26  30
ATOM     30  O3  UNK     0      -2.751   3.100  -0.180  0.00  0.00    +0.000 OA
ATOM     31  H39 UNK     0      -2.981   3.903   0.394  0.00  0.00    +0.000 HD
ENDBRANCH  26  30
ENDBRANCH  21  22
ENDBRANCH   1  21
TORSDOF 12
