REMARK  Name = C:\Users\Maximilian\Desktop\Conformers\converted_pdb\conformers_pdb\Rosmarinic Acid_conf_16.pdb
REMARK  12 active torsions:
REMARK  status: ('A' for Active; 'I' for Inactive)
REMARK    1  A    between atoms: C10_1  and  O1_2
REMARK    2  A    between atoms: C10_1  and  C14_17
REMARK    3  A    between atoms: C10_1  and  C9_21
REMARK    4  A    between atoms: O1_2  and  C18_3
REMARK    5  A    between atoms: C18_3  and  C20_5
REMARK    6  A    between atoms: C21_6  and  C19_7
REMARK    7  A    between atoms: C24_9  and  O7_13
REMARK    8  A    between atoms: C26_10  and  O8_15
REMARK    9  A    between atoms: C14_17  and  O2_19
REMARK   10  A    between atoms: C9_21  and  C11_22
REMARK   11  A    between atoms: C17_25  and  O4_28
REMARK   12  A    between atoms: C15_26  and  O3_30
REMARK                            x       y       z     vdW  Elec       q    Type
REMARK                         _______ _______ _______ _____ _____    ______ ____
ROOT
ATOM      1  C10 UNK     0      -2.467  -2.138   1.469  0.00  0.00    +0.000 C 
ENDROOT
BRANCH   1   2
ATOM      2  C14 UNK     0      -2.881  -2.774   2.762  0.00  0.00    +0.000 C 
ATOM      3  O5  UNK     0      -2.719  -2.161   3.852  0.00  0.00    +0.000 OA
BRANCH   2   4
ATOM      4  O2  UNK     0      -3.484  -4.028   2.755  0.00  0.00    +0.000 OA
ATOM      5  H38 UNK     0      -3.783  -4.465   3.618  0.00  0.00    +0.000 HD
ENDBRANCH   2   4
ENDBRANCH   1   2
BRANCH   1   6
ATOM      6  O1  UNK     0      -1.194  -1.511   1.648  0.00  0.00    +0.000 OA
BRANCH   6   7
ATOM      7  C18 UNK     0      -0.243  -1.369   0.630  0.00  0.00    +0.000 C 
ATOM      8  O6  UNK     0      -0.404  -1.942  -0.483  0.00  0.00    +0.000 OA
BRANCH   7   9
ATOM      9  C20 UNK     0       0.940  -0.531   0.879  0.00  0.00    +0.000 C 
ATOM     10  C21 UNK     0       1.876  -0.318  -0.056  0.00  0.00    +0.000 C 
BRANCH  10  11
ATOM     11  C19 UNK     0       3.076   0.528   0.158  0.00  0.00    +0.000 A 
ATOM     12  C22 UNK     0       3.125   1.540   1.138  0.00  0.00    +0.000 A 
ATOM     13  C24 UNK     0       4.277   2.325   1.294  0.00  0.00    +0.000 A 
ATOM     14  C26 UNK     0       5.386   2.111   0.468  0.00  0.00    +0.000 A 
ATOM     15  C25 UNK     0       5.338   1.118  -0.518  0.00  0.00    +0.000 A 
ATOM     16  C23 UNK     0       4.190   0.337  -0.676  0.00  0.00    +0.000 A 
BRANCH  13  17
ATOM     17  O7  UNK     0       4.324   3.322   2.267  0.00  0.00    +0.000 OA
ATOM     18  H41 UNK     0       3.538   3.503   2.880  0.00  0.00    +0.000 HD
ENDBRANCH  13  17
BRANCH  14  19
ATOM     19  O8  UNK     0       6.530   2.891   0.629  0.00  0.00    +0.000 OA
ATOM     20  H42 UNK     0       7.347   2.760   0.045  0.00  0.00    +0.000 HD
ENDBRANCH  14  19
ENDBRANCH  10  11
ENDBRANCH   7   9
ENDBRANCH   6   7
ENDBRANCH   1   6
BRANCH   1  21
ATOM     21  C9  UNK     0      -3.525  -1.105   1.042  0.00  0.00    +0.000 C 
BRANCH  21  22
ATOM     22  C11 UNK     0      -3.205  -0.499  -0.300  0.00  0.00    +0.000 A 
ATOM     23  C13 UNK     0      -3.520  -1.191  -1.480  0.00  0.00    +0.000 A 
ATOM     24  C16 UNK     0      -3.179  -0.655  -2.724  0.00  0.00    +0.000 A 
ATOM     25  C17 UNK     0      -2.511   0.575  -2.803  0.00  0.00    +0.000 A 
ATOM     26  C15 UNK     0      -2.187   1.269  -1.630  0.00  0.00    +0.000 A 
ATOM     27  C12 UNK     0      -2.536   0.733  -0.383  0.00  0.00    +0.000 A 
BRANCH  25  28
ATOM     28  O4  UNK     0      -2.164   1.111  -4.042  0.00  0.00    +0.000 OA
ATOM     29  H40 UNK     0      -2.383   0.631  -4.907  0.00  0.00    +0.000 HD
ENDBRANCH  25  28
BRANCH  26  30
ATOM     30  O3  UNK     0      -1.513   2.486  -1.712  0.00  0.00    +0.000 OA
ATOM     31  H39 UNK     0      -1.260   3.008  -0.881  0.00  0.00    +0.000 HD
ENDBRANCH  26  30
ENDBRANCH  21  22
ENDBRANCH   1  21
TORSDOF 12
