REMARK  Name = C:\Users\Maximilian\Desktop\Conformers\converted_pdb\conformers_pdb\Rosmarinic Acid_conf_19.pdb
REMARK  12 active torsions:
REMARK  status: ('A' for Active; 'I' for Inactive)
REMARK    1  A    between atoms: C10_1  and  O1_2
REMARK    2  A    between atoms: C10_1  and  C14_17
REMARK    3  A    between atoms: C10_1  and  C9_21
REMARK    4  A    between atoms: O1_2  and  C18_3
REMARK    5  A    between atoms: C18_3  and  C20_5
REMARK    6  A    between atoms: C21_6  and  C19_7
REMARK    7  A    between atoms: C24_9  and  O7_13
REMARK    8  A    between atoms: C26_10  and  O8_15
REMARK    9  A    between atoms: C14_17  and  O2_19
REMARK   10  A    between atoms: C9_21  and  C11_22
REMARK   11  A    between atoms: C17_25  and  O4_28
REMARK   12  A    between atoms: C15_26  and  O3_30
REMARK                            x       y       z     vdW  Elec       q    Type
REMARK                         _______ _______ _______ _____ _____    ______ ____
ROOT
ATOM      1  C10 UNK     0      -2.018  -2.181  -1.798  0.00  0.00    +0.000 C 
ENDROOT
BRANCH   1   2
ATOM      2  C14 UNK     0      -2.230  -3.306  -0.823  0.00  0.00    +0.000 C 
ATOM      3  O5  UNK     0      -2.888  -4.323  -1.170  0.00  0.00    +0.000 OA
BRANCH   2   4
ATOM      4  O2  UNK     0      -1.739  -3.208   0.476  0.00  0.00    +0.000 OA
ATOM      5  H38 UNK     0      -1.893  -3.951   1.147  0.00  0.00    +0.000 HD
ENDBRANCH   2   4
ENDBRANCH   1   2
BRANCH   1   6
ATOM      6  O1  UNK     0      -0.788  -1.508  -1.526  0.00  0.00    +0.000 OA
BRANCH   6   7
ATOM      7  C18 UNK     0       0.475  -2.077  -1.728  0.00  0.00    +0.000 C 
ATOM      8  O6  UNK     0       0.587  -3.222  -2.244  0.00  0.00    +0.000 OA
BRANCH   7   9
ATOM      9  C20 UNK     0       1.687  -1.340  -1.338  0.00  0.00    +0.000 C 
ATOM     10  C21 UNK     0       1.620  -0.142  -0.741  0.00  0.00    +0.000 C 
BRANCH  10  11
ATOM     11  C19 UNK     0       2.806   0.638  -0.308  0.00  0.00    +0.000 A 
ATOM     12  C22 UNK     0       2.627   1.654   0.646  0.00  0.00    +0.000 A 
ATOM     13  C24 UNK     0       3.709   2.427   1.083  0.00  0.00    +0.000 A 
ATOM     14  C26 UNK     0       4.990   2.194   0.558  0.00  0.00    +0.000 A 
ATOM     15  C25 UNK     0       5.174   1.193  -0.404  0.00  0.00    +0.000 A 
ATOM     16  C23 UNK     0       4.092   0.422  -0.839  0.00  0.00    +0.000 A 
BRANCH  13  17
ATOM     17  O7  UNK     0       3.491   3.420   2.037  0.00  0.00    +0.000 OA
ATOM     18  H41 UNK     0       4.240   4.005   2.386  0.00  0.00    +0.000 HD
ENDBRANCH  13  17
BRANCH  14  19
ATOM     19  O8  UNK     0       6.073   2.959   0.989  0.00  0.00    +0.000 OA
ATOM     20  H42 UNK     0       7.007   2.810   0.624  0.00  0.00    +0.000 HD
ENDBRANCH  14  19
ENDBRANCH  10  11
ENDBRANCH   7   9
ENDBRANCH   6   7
ENDBRANCH   1   6
BRANCH   1  21
ATOM     21  C9  UNK     0      -3.179  -1.175  -1.738  0.00  0.00    +0.000 C 
BRANCH  21  22
ATOM     22  C11 UNK     0      -3.223  -0.422  -0.429  0.00  0.00    +0.000 A 
ATOM     23  C13 UNK     0      -4.024  -0.881   0.628  0.00  0.00    +0.000 A 
ATOM     24  C16 UNK     0      -4.025  -0.211   1.854  0.00  0.00    +0.000 A 
ATOM     25  C17 UNK     0      -3.219   0.921   2.041  0.00  0.00    +0.000 A 
ATOM     26  C15 UNK     0      -2.413   1.382   0.993  0.00  0.00    +0.000 A 
ATOM     27  C12 UNK     0      -2.420   0.714  -0.240  0.00  0.00    +0.000 A 
BRANCH  25  28
ATOM     28  O4  UNK     0      -3.213   1.588   3.264  0.00  0.00    +0.000 OA
ATOM     29  H40 UNK     0      -3.784   1.277   4.041  0.00  0.00    +0.000 HD
ENDBRANCH  25  28
BRANCH  26  30
ATOM     30  O3  UNK     0      -1.604   2.501   1.184  0.00  0.00    +0.000 OA
ATOM     31  H39 UNK     0      -1.004   2.853   0.447  0.00  0.00    +0.000 HD
ENDBRANCH  26  30
ENDBRANCH  21  22
ENDBRANCH   1  21
TORSDOF 12
