REMARK  Name = C:\Users\Maximilian\Desktop\Conformers\converted_pdb\conformers_pdb\Rosmarinic Acid_conf_20.pdb
REMARK  12 active torsions:
REMARK  status: ('A' for Active; 'I' for Inactive)
REMARK    1  A    between atoms: C10_1  and  O1_2
REMARK    2  A    between atoms: C10_1  and  C14_17
REMARK    3  A    between atoms: C10_1  and  C9_21
REMARK    4  A    between atoms: O1_2  and  C18_3
REMARK    5  A    between atoms: C18_3  and  C20_5
REMARK    6  A    between atoms: C21_6  and  C19_7
REMARK    7  A    between atoms: C24_9  and  O7_13
REMARK    8  A    between atoms: C26_10  and  O8_15
REMARK    9  A    between atoms: C14_17  and  O2_19
REMARK   10  A    between atoms: C9_21  and  C11_22
REMARK   11  A    between atoms: C17_25  and  O4_28
REMARK   12  A    between atoms: C15_26  and  O3_30
REMARK                            x       y       z     vdW  Elec       q    Type
REMARK                         _______ _______ _______ _____ _____    ______ ____
ROOT
ATOM      1  C10 UNK     0      -1.955  -1.969   1.425  0.00  0.00    +0.000 C 
ENDROOT
BRANCH   1   2
ATOM      2  C14 UNK     0      -1.802  -2.714   2.716  0.00  0.00    +0.000 C 
ATOM      3  O5  UNK     0      -1.001  -2.300   3.598  0.00  0.00    +0.000 OA
BRANCH   2   4
ATOM      4  O2  UNK     0      -2.577  -3.844   2.959  0.00  0.00    +0.000 OA
ATOM      5  H38 UNK     0      -2.497  -4.351   3.833  0.00  0.00    +0.000 HD
ENDBRANCH   2   4
ENDBRANCH   1   2
BRANCH   1   6
ATOM      6  O1  UNK     0      -0.661  -1.572   0.963  0.00  0.00    +0.000 OA
BRANCH   6   7
ATOM      7  C18 UNK     0      -0.313  -1.458  -0.390  0.00  0.00    +0.000 C 
ATOM      8  O6  UNK     0      -1.105  -1.846  -1.291  0.00  0.00    +0.000 OA
BRANCH   7   9
ATOM      9  C20 UNK     0       0.984  -0.884  -0.778  0.00  0.00    +0.000 C 
ATOM     10  C21 UNK     0       1.838  -0.392   0.129  0.00  0.00    +0.000 C 
BRANCH  10  11
ATOM     11  C19 UNK     0       3.146   0.218  -0.217  0.00  0.00    +0.000 A 
ATOM     12  C22 UNK     0       3.752   1.081   0.712  0.00  0.00    +0.000 A 
ATOM     13  C24 UNK     0       4.992   1.676   0.435  0.00  0.00    +0.000 A 
ATOM     14  C26 UNK     0       5.642   1.401  -0.778  0.00  0.00    +0.000 A 
ATOM     15  C25 UNK     0       5.052   0.531  -1.699  0.00  0.00    +0.000 A 
ATOM     16  C23 UNK     0       3.816  -0.061  -1.424  0.00  0.00    +0.000 A 
BRANCH  13  17
ATOM     17  O7  UNK     0       5.577   2.537   1.362  0.00  0.00    +0.000 OA
ATOM     18  H41 UNK     0       5.129   2.752   2.245  0.00  0.00    +0.000 HD
ENDBRANCH  13  17
BRANCH  14  19
ATOM     19  O8  UNK     0       6.875   1.977  -1.083  0.00  0.00    +0.000 OA
ATOM     20  H42 UNK     0       7.344   2.612  -0.449  0.00  0.00    +0.000 HD
ENDBRANCH  14  19
ENDBRANCH  10  11
ENDBRANCH   7   9
ENDBRANCH   6   7
ENDBRANCH   1   6
BRANCH   1  21
ATOM     21  C9  UNK     0      -2.852  -0.738   1.644  0.00  0.00    +0.000 C 
BRANCH  21  22
ATOM     22  C11 UNK     0      -3.107   0.004   0.358  0.00  0.00    +0.000 A 
ATOM     23  C13 UNK     0      -2.341   1.132   0.025  0.00  0.00    +0.000 A 
ATOM     24  C16 UNK     0      -2.551   1.793  -1.188  0.00  0.00    +0.000 A 
ATOM     25  C17 UNK     0      -3.525   1.333  -2.084  0.00  0.00    +0.000 A 
ATOM     26  C15 UNK     0      -4.292   0.200  -1.759  0.00  0.00    +0.000 A 
ATOM     27  C12 UNK     0      -4.079  -0.459  -0.543  0.00  0.00    +0.000 A 
BRANCH  25  28
ATOM     28  O4  UNK     0      -3.731   1.993  -3.294  0.00  0.00    +0.000 OA
ATOM     29  H40 UNK     0      -3.190   2.810  -3.552  0.00  0.00    +0.000 HD
ENDBRANCH  25  28
BRANCH  26  30
ATOM     30  O3  UNK     0      -5.266  -0.285  -2.631  0.00  0.00    +0.000 OA
ATOM     31  H39 UNK     0      -5.457   0.156  -3.523  0.00  0.00    +0.000 HD
ENDBRANCH  26  30
ENDBRANCH  21  22
ENDBRANCH   1  21
TORSDOF 12
