REMARK  Name = C:\Users\Maximilian\Desktop\Conformers\converted_pdb\conformers_pdb\T5342126_conf_11.pdb
REMARK  9 active torsions:
REMARK  status: ('A' for Active; 'I' for Inactive)
REMARK    1  A    between atoms: N6_1  and  C12_20
REMARK    2  A    between atoms: C18_5  and  C19_6
REMARK    3  A    between atoms: C19_6  and  N9_7
REMARK    4  A    between atoms: N9_7  and  C22_9
REMARK    5  A    between atoms: C22_9  and  N11_11
REMARK    6  A    between atoms: N11_11  and  C23_13
REMARK    7  A    between atoms: C12_20  and  C13_21
REMARK    8  A    between atoms: C15_23  and  S2_27
REMARK    9  A    between atoms: S2_27  and  N10_30
REMARK                            x       y       z     vdW  Elec       q    Type
REMARK                         _______ _______ _______ _____ _____    ______ ____
ROOT
ATOM      1  N6  UNK     0      -1.594  -1.288  -2.287  0.00  0.00    +0.000 N 
ATOM      2  N7  UNK     0      -1.355  -0.075  -2.760  0.00  0.00    +0.000 NA
ATOM      3  N8  UNK     0      -0.146   0.331  -2.396  0.00  0.00    +0.000 NA
ATOM      4  C17 UNK     0      -0.526  -1.690  -1.577  0.00  0.00    +0.000 A 
ATOM      5  C18 UNK     0       0.392  -0.668  -1.667  0.00  0.00    +0.000 A 
ENDROOT
BRANCH   5   6
ATOM      6  C19 UNK     0       1.713  -0.593  -0.968  0.00  0.00    +0.000 C 
BRANCH   6   7
ATOM      7  N9  UNK     0       1.545  -0.102   0.399  0.00  0.00    +0.000 N 
ATOM      8  H38 UNK     0       0.582   0.067   0.770  0.00  0.00    +0.000 HD
BRANCH   7   9
ATOM      9  C22 UNK     0       2.665   0.221   1.236  0.00  0.00    +0.000 C 
ATOM     10  S3  UNK     0       2.381   0.787   2.752  0.00  0.00    +0.000 S 
BRANCH   9  11
ATOM     11  N11 UNK     0       4.003  -0.109   0.826  0.00  0.00    +0.000 N 
ATOM     12  H41 UNK     0       4.142  -0.968   0.247  0.00  0.00    +0.000 HD
BRANCH  11  13
ATOM     13  C23 UNK     0       5.172   0.638   1.206  0.00  0.00    +0.000 A 
ATOM     14  C24 UNK     0       5.114   2.028   1.418  0.00  0.00    +0.000 A 
ATOM     15  C26 UNK     0       6.269   2.737   1.761  0.00  0.00    +0.000 A 
ATOM     16  C28 UNK     0       7.492   2.071   1.881  0.00  0.00    +0.000 A 
ATOM     17  I1  UNK     0       9.233   3.144   2.396  0.00  0.00    +0.000 I 
ATOM     18  C27 UNK     0       7.561   0.694   1.649  0.00  0.00    +0.000 A 
ATOM     19  C25 UNK     0       6.408  -0.018   1.307  0.00  0.00    +0.000 A 
ENDBRANCH  11  13
ENDBRANCH   9  11
ENDBRANCH   7   9
ENDBRANCH   6   7
ENDBRANCH   5   6
BRANCH   1  20
ATOM     20  C12 UNK     0      -2.866  -1.989  -2.418  0.00  0.00    +0.000 C 
BRANCH  20  21
ATOM     21  C13 UNK     0      -3.749  -1.662  -1.247  0.00  0.00    +0.000 A 
ATOM     22  C14 UNK     0      -4.539  -0.502  -1.261  0.00  0.00    +0.000 A 
ATOM     23  C15 UNK     0      -5.329  -0.168  -0.151  0.00  0.00    +0.000 A 
ATOM     24  C20 UNK     0      -5.311  -0.989   0.984  0.00  0.00    +0.000 A 
ATOM     25  C21 UNK     0      -4.515  -2.138   1.008  0.00  0.00    +0.000 A 
ATOM     26  C16 UNK     0      -3.732  -2.472  -0.100  0.00  0.00    +0.000 A 
BRANCH  23  27
ATOM     27  S2  UNK     0      -6.302   1.299  -0.174  0.00  0.00    +0.000 S 
ATOM     28  O5  UNK     0      -7.446   1.170   0.793  0.00  0.00    +0.000 OA
ATOM     29  O4  UNK     0      -6.858   1.516  -1.554  0.00  0.00    +0.000 OA
BRANCH  27  30
ATOM     30  N10 UNK     0      -5.317   2.646   0.277  0.00  0.00    +0.000 NA
ATOM     31  H40 UNK     0      -4.573   2.737  -0.452  0.00  0.00    +0.000 HD
ATOM     32  H39 UNK     0      -5.915   3.500   0.205  0.00  0.00    +0.000 HD
ENDBRANCH  27  30
ENDBRANCH  23  27
ENDBRANCH  20  21
ENDBRANCH   1  20
TORSDOF 9
