REMARK  Name = C:\Users\Maximilian\Desktop\Conformers\converted_pdb\conformers_pdb\T5342126_conf_15.pdb
REMARK  9 active torsions:
REMARK  status: ('A' for Active; 'I' for Inactive)
REMARK    1  A    between atoms: N6_1  and  C12_20
REMARK    2  A    between atoms: C18_5  and  C19_6
REMARK    3  A    between atoms: C19_6  and  N9_7
REMARK    4  A    between atoms: N9_7  and  C22_9
REMARK    5  A    between atoms: C22_9  and  N11_11
REMARK    6  A    between atoms: N11_11  and  C23_13
REMARK    7  A    between atoms: C12_20  and  C13_21
REMARK    8  A    between atoms: C15_23  and  S2_27
REMARK    9  A    between atoms: S2_27  and  N10_30
REMARK                            x       y       z     vdW  Elec       q    Type
REMARK                         _______ _______ _______ _____ _____    ______ ____
ROOT
ATOM      1  N6  UNK     0      -1.223   2.281   0.928  0.00  0.00    +0.000 N 
ATOM      2  N7  UNK     0      -1.180   3.299   0.084  0.00  0.00    +0.000 NA
ATOM      3  N8  UNK     0      -0.077   3.242  -0.650  0.00  0.00    +0.000 NA
ATOM      4  C17 UNK     0      -0.132   1.519   0.738  0.00  0.00    +0.000 A 
ATOM      5  C18 UNK     0       0.597   2.145  -0.248  0.00  0.00    +0.000 A 
ENDROOT
BRANCH   5   6
ATOM      6  C19 UNK     0       1.850   1.636  -0.887  0.00  0.00    +0.000 C 
BRANCH   6   7
ATOM      7  N9  UNK     0       1.533   0.714  -1.978  0.00  0.00    +0.000 N 
ATOM      8  H38 UNK     0       0.531   0.508  -2.199  0.00  0.00    +0.000 HD
BRANCH   7   9
ATOM      9  C22 UNK     0       2.534   0.244  -2.893  0.00  0.00    +0.000 C 
ATOM     10  S3  UNK     0       2.096  -0.180  -4.411  0.00  0.00    +0.000 S 
BRANCH   9  11
ATOM     11  N11 UNK     0       3.925   0.253  -2.545  0.00  0.00    +0.000 N 
ATOM     12  H41 UNK     0       4.603   0.610  -3.257  0.00  0.00    +0.000 HD
BRANCH  11  13
ATOM     13  C23 UNK     0       4.447  -0.324  -1.336  0.00  0.00    +0.000 A 
ATOM     14  C24 UNK     0       5.731   0.037  -0.898  0.00  0.00    +0.000 A 
ATOM     15  C26 UNK     0       6.264  -0.520   0.268  0.00  0.00    +0.000 A 
ATOM     16  C28 UNK     0       5.523  -1.450   1.004  0.00  0.00    +0.000 A 
ATOM     17  I1  UNK     0       6.328  -2.286   2.765  0.00  0.00    +0.000 I 
ATOM     18  C27 UNK     0       4.250  -1.828   0.568  0.00  0.00    +0.000 A 
ATOM     19  C25 UNK     0       3.714  -1.275  -0.599  0.00  0.00    +0.000 A 
ENDBRANCH  11  13
ENDBRANCH   9  11
ENDBRANCH   7   9
ENDBRANCH   6   7
ENDBRANCH   5   6
BRANCH   1  20
ATOM     20  C12 UNK     0      -2.348   1.984   1.806  0.00  0.00    +0.000 C 
BRANCH  20  21
ATOM     21  C13 UNK     0      -3.331   1.100   1.090  0.00  0.00    +0.000 A 
ATOM     22  C14 UNK     0      -3.156  -0.293   1.088  0.00  0.00    +0.000 A 
ATOM     23  C15 UNK     0      -4.040  -1.118   0.377  0.00  0.00    +0.000 A 
ATOM     24  C20 UNK     0      -5.106  -0.545  -0.329  0.00  0.00    +0.000 A 
ATOM     25  C21 UNK     0      -5.276   0.842  -0.341  0.00  0.00    +0.000 A 
ATOM     26  C16 UNK     0      -4.388   1.664   0.358  0.00  0.00    +0.000 A 
BRANCH  23  27
ATOM     27  S2  UNK     0      -3.820  -2.865   0.393  0.00  0.00    +0.000 S 
ATOM     28  O5  UNK     0      -2.355  -3.191   0.461  0.00  0.00    +0.000 OA
ATOM     29  O4  UNK     0      -4.388  -3.462  -0.865  0.00  0.00    +0.000 OA
BRANCH  27  30
ATOM     30  N10 UNK     0      -4.626  -3.539   1.765  0.00  0.00    +0.000 NA
ATOM     31  H40 UNK     0      -5.629  -3.253   1.700  0.00  0.00    +0.000 HD
ATOM     32  H39 UNK     0      -4.233  -3.068   2.611  0.00  0.00    +0.000 HD
ENDBRANCH  27  30
ENDBRANCH  23  27
ENDBRANCH  20  21
ENDBRANCH   1  20
TORSDOF 9
