REMARK  Name = C:\Users\Maximilian\Desktop\Conformers\converted_pdb\conformers_pdb\T5342126_conf_19.pdb
REMARK  9 active torsions:
REMARK  status: ('A' for Active; 'I' for Inactive)
REMARK    1  A    between atoms: N6_1  and  C12_20
REMARK    2  A    between atoms: C18_5  and  C19_6
REMARK    3  A    between atoms: C19_6  and  N9_7
REMARK    4  A    between atoms: N9_7  and  C22_9
REMARK    5  A    between atoms: C22_9  and  N11_11
REMARK    6  A    between atoms: N11_11  and  C23_13
REMARK    7  A    between atoms: C12_20  and  C13_21
REMARK    8  A    between atoms: C15_23  and  S2_27
REMARK    9  A    between atoms: S2_27  and  N10_30
REMARK                            x       y       z     vdW  Elec       q    Type
REMARK                         _______ _______ _______ _____ _____    ______ ____
ROOT
ATOM      1  N6  UNK     0      -0.838   0.627  -0.891  0.00  0.00    +0.000 N 
ATOM      2  N7  UNK     0      -0.204   0.940   0.228  0.00  0.00    +0.000 NA
ATOM      3  N8  UNK     0       0.916   0.238   0.333  0.00  0.00    +0.000 NA
ATOM      4  C17 UNK     0      -0.132  -0.317  -1.535  0.00  0.00    +0.000 A 
ATOM      5  C18 UNK     0       0.979  -0.553  -0.757  0.00  0.00    +0.000 A 
ENDROOT
BRANCH   5   6
ATOM      6  C19 UNK     0       2.092  -1.509  -1.051  0.00  0.00    +0.000 C 
BRANCH   6   7
ATOM      7  N9  UNK     0       2.783  -1.136  -2.285  0.00  0.00    +0.000 N 
ATOM      8  H38 UNK     0       2.731  -1.803  -3.089  0.00  0.00    +0.000 HD
BRANCH   7   9
ATOM      9  C22 UNK     0       3.373   0.156  -2.509  0.00  0.00    +0.000 C 
ATOM     10  S3  UNK     0       3.558   0.692  -4.044  0.00  0.00    +0.000 S 
BRANCH   9  11
ATOM     11  N11 UNK     0       3.647   1.052  -1.424  0.00  0.00    +0.000 N 
ATOM     12  H41 UNK     0       3.347   2.048  -1.525  0.00  0.00    +0.000 HD
BRANCH  11  13
ATOM     13  C23 UNK     0       4.403   0.683  -0.258  0.00  0.00    +0.000 A 
ATOM     14  C24 UNK     0       5.295  -0.406  -0.278  0.00  0.00    +0.000 A 
ATOM     15  C26 UNK     0       6.026  -0.738   0.867  0.00  0.00    +0.000 A 
ATOM     16  C28 UNK     0       5.883   0.017   2.035  0.00  0.00    +0.000 A 
ATOM     17  I1  UNK     0       6.986  -0.488   3.760  0.00  0.00    +0.000 I 
ATOM     18  C27 UNK     0       5.011   1.110   2.056  0.00  0.00    +0.000 A 
ATOM     19  C25 UNK     0       4.279   1.445   0.913  0.00  0.00    +0.000 A 
ENDBRANCH  11  13
ENDBRANCH   9  11
ENDBRANCH   7   9
ENDBRANCH   6   7
ENDBRANCH   5   6
BRANCH   1  20
ATOM     20  C12 UNK     0      -2.136   1.164  -1.283  0.00  0.00    +0.000 C 
BRANCH  20  21
ATOM     21  C13 UNK     0      -3.232   0.283  -0.753  0.00  0.00    +0.000 A 
ATOM     22  C14 UNK     0      -3.724   0.473   0.548  0.00  0.00    +0.000 A 
ATOM     23  C15 UNK     0      -4.714  -0.375   1.063  0.00  0.00    +0.000 A 
ATOM     24  C20 UNK     0      -5.216  -1.417   0.270  0.00  0.00    +0.000 A 
ATOM     25  C21 UNK     0      -4.718  -1.619  -1.020  0.00  0.00    +0.000 A 
ATOM     26  C16 UNK     0      -3.724  -0.778  -1.529  0.00  0.00    +0.000 A 
BRANCH  23  27
ATOM     27  S2  UNK     0      -5.339  -0.116   2.688  0.00  0.00    +0.000 S 
ATOM     28  O5  UNK     0      -4.237   0.383   3.581  0.00  0.00    +0.000 OA
ATOM     29  O4  UNK     0      -5.864  -1.409   3.246  0.00  0.00    +0.000 OA
BRANCH  27  30
ATOM     30  N10 UNK     0      -6.616   1.048   2.633  0.00  0.00    +0.000 NA
ATOM     31  H40 UNK     0      -6.911   1.224   3.620  0.00  0.00    +0.000 HD
ATOM     32  H39 UNK     0      -6.202   1.939   2.279  0.00  0.00    +0.000 HD
ENDBRANCH  27  30
ENDBRANCH  23  27
ENDBRANCH  20  21
ENDBRANCH   1  20
TORSDOF 9
