REMARK  Name = C:\Users\Maximilian\Desktop\Conformers\converted_pdb\conformers_pdb\T5342126_conf_2.pdb
REMARK  9 active torsions:
REMARK  status: ('A' for Active; 'I' for Inactive)
REMARK    1  A    between atoms: N6_1  and  C12_20
REMARK    2  A    between atoms: C18_5  and  C19_6
REMARK    3  A    between atoms: C19_6  and  N9_7
REMARK    4  A    between atoms: N9_7  and  C22_9
REMARK    5  A    between atoms: C22_9  and  N11_11
REMARK    6  A    between atoms: N11_11  and  C23_13
REMARK    7  A    between atoms: C12_20  and  C13_21
REMARK    8  A    between atoms: C15_23  and  S2_27
REMARK    9  A    between atoms: S2_27  and  N10_30
REMARK                            x       y       z     vdW  Elec       q    Type
REMARK                         _______ _______ _______ _____ _____    ______ ____
ROOT
ATOM      1  N6  UNK     0      -0.042   0.348   0.608  0.00  0.00    +0.000 N 
ATOM      2  N7  UNK     0      -0.316   1.235   1.551  0.00  0.00    +0.000 NA
ATOM      3  N8  UNK     0      -0.029   2.459   1.127  0.00  0.00    +0.000 NA
ATOM      4  C17 UNK     0       0.419   0.998  -0.473  0.00  0.00    +0.000 A 
ATOM      5  C18 UNK     0       0.430   2.333  -0.135  0.00  0.00    +0.000 A 
ENDROOT
BRANCH   5   6
ATOM      6  C19 UNK     0       0.978   3.459  -0.955  0.00  0.00    +0.000 C 
BRANCH   6   7
ATOM      7  N9  UNK     0       2.184   4.002  -0.332  0.00  0.00    +0.000 N 
ATOM      8  H38 UNK     0       2.148   4.974   0.049  0.00  0.00    +0.000 HD
BRANCH   7   9
ATOM      9  C22 UNK     0       3.379   3.228  -0.154  0.00  0.00    +0.000 C 
ATOM     10  S3  UNK     0       4.627   3.848   0.708  0.00  0.00    +0.000 S 
BRANCH   9  11
ATOM     11  N11 UNK     0       3.525   1.955  -0.795  0.00  0.00    +0.000 N 
ATOM     12  H41 UNK     0       3.409   1.925  -1.833  0.00  0.00    +0.000 HD
BRANCH  11  13
ATOM     13  C23 UNK     0       3.623   0.711  -0.076  0.00  0.00    +0.000 A 
ATOM     14  C24 UNK     0       3.840  -0.478  -0.791  0.00  0.00    +0.000 A 
ATOM     15  C26 UNK     0       3.857  -1.710  -0.130  0.00  0.00    +0.000 A 
ATOM     16  C28 UNK     0       3.652  -1.767   1.251  0.00  0.00    +0.000 A 
ATOM     17  I1  UNK     0       3.643  -3.629   2.241  0.00  0.00    +0.000 I 
ATOM     18  C27 UNK     0       3.434  -0.590   1.973  0.00  0.00    +0.000 A 
ATOM     19  C25 UNK     0       3.418   0.643   1.316  0.00  0.00    +0.000 A 
ENDBRANCH  11  13
ENDBRANCH   9  11
ENDBRANCH   7   9
ENDBRANCH   6   7
ENDBRANCH   5   6
BRANCH   1  20
ATOM     20  C12 UNK     0      -0.219  -1.092   0.749  0.00  0.00    +0.000 C 
BRANCH  20  21
ATOM     21  C13 UNK     0      -1.475  -1.525   0.046  0.00  0.00    +0.000 A 
ATOM     22  C14 UNK     0      -2.718  -1.406   0.687  0.00  0.00    +0.000 A 
ATOM     23  C15 UNK     0      -3.896  -1.772   0.021  0.00  0.00    +0.000 A 
ATOM     24  C20 UNK     0      -3.831  -2.236  -1.299  0.00  0.00    +0.000 A 
ATOM     25  C21 UNK     0      -2.597  -2.342  -1.946  0.00  0.00    +0.000 A 
ATOM     26  C16 UNK     0      -1.422  -1.984  -1.280  0.00  0.00    +0.000 A 
BRANCH  23  27
ATOM     27  S2  UNK     0      -5.454  -1.609   0.825  0.00  0.00    +0.000 S 
ATOM     28  O5  UNK     0      -5.284  -1.802   2.306  0.00  0.00    +0.000 OA
ATOM     29  O4  UNK     0      -6.404  -2.654   0.309  0.00  0.00    +0.000 OA
BRANCH  27  30
ATOM     30  N10 UNK     0      -6.097  -0.035   0.518  0.00  0.00    +0.000 NA
ATOM     31  H40 UNK     0      -7.043   0.001   0.960  0.00  0.00    +0.000 HD
ATOM     32  H39 UNK     0      -6.244   0.039  -0.514  0.00  0.00    +0.000 HD
ENDBRANCH  27  30
ENDBRANCH  23  27
ENDBRANCH  20  21
ENDBRANCH   1  20
TORSDOF 9
