REMARK  Name = C:\Users\Maximilian\Desktop\Conformers\converted_pdb\conformers_pdb\T5342126_conf_20.pdb
REMARK  9 active torsions:
REMARK  status: ('A' for Active; 'I' for Inactive)
REMARK    1  A    between atoms: N6_1  and  C12_20
REMARK    2  A    between atoms: C18_5  and  C19_6
REMARK    3  A    between atoms: C19_6  and  N9_7
REMARK    4  A    between atoms: N9_7  and  C22_9
REMARK    5  A    between atoms: C22_9  and  N11_11
REMARK    6  A    between atoms: N11_11  and  C23_13
REMARK    7  A    between atoms: C12_20  and  C13_21
REMARK    8  A    between atoms: C15_23  and  S2_27
REMARK    9  A    between atoms: S2_27  and  N10_30
REMARK                            x       y       z     vdW  Elec       q    Type
REMARK                         _______ _______ _______ _____ _____    ______ ____
ROOT
ATOM      1  N6  UNK     0      -1.993  -2.147  -0.804  0.00  0.00    +0.000 N 
ATOM      2  N7  UNK     0      -1.711  -1.602  -1.977  0.00  0.00    +0.000 NA
ATOM      3  N8  UNK     0      -0.415  -1.333  -2.059  0.00  0.00    +0.000 NA
ATOM      4  C17 UNK     0      -0.861  -2.224  -0.084  0.00  0.00    +0.000 A 
ATOM      5  C18 UNK     0       0.136  -1.725  -0.893  0.00  0.00    +0.000 A 
ENDROOT
BRANCH   5   6
ATOM      6  C19 UNK     0       1.567  -1.511  -0.515  0.00  0.00    +0.000 C 
BRANCH   6   7
ATOM      7  N9  UNK     0       1.727  -0.245   0.200  0.00  0.00    +0.000 N 
ATOM      8  H38 UNK     0       0.880   0.319   0.443  0.00  0.00    +0.000 HD
BRANCH   7   9
ATOM      9  C22 UNK     0       3.018   0.286   0.534  0.00  0.00    +0.000 C 
ATOM     10  S3  UNK     0       3.099   1.719   1.331  0.00  0.00    +0.000 S 
BRANCH   9  11
ATOM     11  N11 UNK     0       4.205  -0.501   0.335  0.00  0.00    +0.000 N 
ATOM     12  H41 UNK     0       4.130  -1.538   0.433  0.00  0.00    +0.000 HD
BRANCH  11  13
ATOM     13  C23 UNK     0       5.505   0.052   0.063  0.00  0.00    +0.000 A 
ATOM     14  C24 UNK     0       5.654   1.246  -0.667  0.00  0.00    +0.000 A 
ATOM     15  C26 UNK     0       6.929   1.750  -0.941  0.00  0.00    +0.000 A 
ATOM     16  C28 UNK     0       8.065   1.062  -0.504  0.00  0.00    +0.000 A 
ATOM     17  I1  UNK     0       9.987   1.824  -0.921  0.00  0.00    +0.000 I 
ATOM     18  C27 UNK     0       7.925  -0.137   0.201  0.00  0.00    +0.000 A 
ATOM     19  C25 UNK     0       6.651  -0.644   0.477  0.00  0.00    +0.000 A 
ENDBRANCH  11  13
ENDBRANCH   9  11
ENDBRANCH   7   9
ENDBRANCH   6   7
ENDBRANCH   5   6
BRANCH   1  20
ATOM     20  C12 UNK     0      -3.339  -2.466  -0.345  0.00  0.00    +0.000 C 
BRANCH  20  21
ATOM     21  C13 UNK     0      -3.932  -1.276   0.356  0.00  0.00    +0.000 A 
ATOM     22  C14 UNK     0      -4.591  -0.279  -0.380  0.00  0.00    +0.000 A 
ATOM     23  C15 UNK     0      -5.098   0.859   0.264  0.00  0.00    +0.000 A 
ATOM     24  C20 UNK     0      -4.949   0.996   1.650  0.00  0.00    +0.000 A 
ATOM     25  C21 UNK     0      -4.280   0.013   2.385  0.00  0.00    +0.000 A 
ATOM     26  C16 UNK     0      -3.766  -1.116   1.741  0.00  0.00    +0.000 A 
BRANCH  23  27
ATOM     27  S2  UNK     0      -5.937   2.098  -0.665  0.00  0.00    +0.000 S 
ATOM     28  O5  UNK     0      -5.327   2.204  -2.035  0.00  0.00    +0.000 OA
ATOM     29  O4  UNK     0      -5.806   3.428   0.023  0.00  0.00    +0.000 OA
BRANCH  27  30
ATOM     30  N10 UNK     0      -7.609   1.686  -0.808  0.00  0.00    +0.000 NA
ATOM     31  H40 UNK     0      -7.978   1.569   0.163  0.00  0.00    +0.000 HD
ATOM     32  H39 UNK     0      -7.654   0.746  -1.261  0.00  0.00    +0.000 HD
ENDBRANCH  27  30
ENDBRANCH  23  27
ENDBRANCH  20  21
ENDBRANCH   1  20
TORSDOF 9
