REMARK  Name = C:\Users\Maximilian\Desktop\Conformers\converted_pdb\conformers_pdb\T5342126_conf_40.pdb
REMARK  9 active torsions:
REMARK  status: ('A' for Active; 'I' for Inactive)
REMARK    1  A    between atoms: N6_1  and  C12_20
REMARK    2  A    between atoms: C18_5  and  C19_6
REMARK    3  A    between atoms: C19_6  and  N9_7
REMARK    4  A    between atoms: N9_7  and  C22_9
REMARK    5  A    between atoms: C22_9  and  N11_11
REMARK    6  A    between atoms: N11_11  and  C23_13
REMARK    7  A    between atoms: C12_20  and  C13_21
REMARK    8  A    between atoms: C15_23  and  S2_27
REMARK    9  A    between atoms: S2_27  and  N10_30
REMARK                            x       y       z     vdW  Elec       q    Type
REMARK                         _______ _______ _______ _____ _____    ______ ____
ROOT
ATOM      1  N6  UNK     0      -1.740   2.766  -0.445  0.00  0.00    +0.000 N 
ATOM      2  N7  UNK     0      -1.491   2.331  -1.670  0.00  0.00    +0.000 NA
ATOM      3  N8  UNK     0      -0.187   2.167  -1.843  0.00  0.00    +0.000 NA
ATOM      4  C17 UNK     0      -0.576   2.879   0.215  0.00  0.00    +0.000 A 
ATOM      5  C18 UNK     0       0.402   2.503  -0.678  0.00  0.00    +0.000 A 
ENDROOT
BRANCH   5   6
ATOM      6  C19 UNK     0       1.868   2.389  -0.405  0.00  0.00    +0.000 C 
BRANCH   6   7
ATOM      7  N9  UNK     0       2.298   0.997  -0.532  0.00  0.00    +0.000 N 
ATOM      8  H38 UNK     0       2.765   0.721  -1.425  0.00  0.00    +0.000 HD
BRANCH   7   9
ATOM      9  C22 UNK     0       2.098  -0.006   0.483  0.00  0.00    +0.000 C 
ATOM     10  S3  UNK     0       1.110   0.274   1.765  0.00  0.00    +0.000 S 
BRANCH   9  11
ATOM     11  N11 UNK     0       2.644  -1.323   0.315  0.00  0.00    +0.000 N 
ATOM     12  H41 UNK     0       2.122  -2.127   0.731  0.00  0.00    +0.000 HD
BRANCH  11  13
ATOM     13  C23 UNK     0       3.864  -1.602  -0.391  0.00  0.00    +0.000 A 
ATOM     14  C24 UNK     0       4.030  -2.849  -1.014  0.00  0.00    +0.000 A 
ATOM     15  C26 UNK     0       5.219  -3.151  -1.686  0.00  0.00    +0.000 A 
ATOM     16  C28 UNK     0       6.258  -2.217  -1.728  0.00  0.00    +0.000 A 
ATOM     17  I1  UNK     0       8.051  -2.676  -2.739  0.00  0.00    +0.000 I 
ATOM     18  C27 UNK     0       6.110  -0.981  -1.091  0.00  0.00    +0.000 A 
ATOM     19  C25 UNK     0       4.923  -0.676  -0.419  0.00  0.00    +0.000 A 
ENDBRANCH  11  13
ENDBRANCH   9  11
ENDBRANCH   7   9
ENDBRANCH   6   7
ENDBRANCH   5   6
BRANCH   1  20
ATOM     20  C12 UNK     0      -3.075   2.926   0.119  0.00  0.00    +0.000 C 
BRANCH  20  21
ATOM     21  C13 UNK     0      -3.459   1.681   0.870  0.00  0.00    +0.000 A 
ATOM     22  C14 UNK     0      -3.983   0.576   0.181  0.00  0.00    +0.000 A 
ATOM     23  C15 UNK     0      -4.285  -0.609   0.866  0.00  0.00    +0.000 A 
ATOM     24  C20 UNK     0      -4.041  -0.695   2.244  0.00  0.00    +0.000 A 
ATOM     25  C21 UNK     0      -3.506   0.398   2.931  0.00  0.00    +0.000 A 
ATOM     26  C16 UNK     0      -3.210   1.580   2.248  0.00  0.00    +0.000 A 
BRANCH  23  27
ATOM     27  S2  UNK     0      -4.922  -1.996  -0.011  0.00  0.00    +0.000 S 
ATOM     28  O5  UNK     0      -5.824  -1.524  -1.118  0.00  0.00    +0.000 OA
ATOM     29  O4  UNK     0      -5.716  -2.869   0.919  0.00  0.00    +0.000 OA
BRANCH  27  30
ATOM     30  N10 UNK     0      -3.611  -2.905  -0.676  0.00  0.00    +0.000 NA
ATOM     31  H40 UNK     0      -3.108  -2.275  -1.340  0.00  0.00    +0.000 HD
ATOM     32  H39 UNK     0      -4.030  -3.673  -1.247  0.00  0.00    +0.000 HD
ENDBRANCH  27  30
ENDBRANCH  23  27
ENDBRANCH  20  21
ENDBRANCH   1  20
TORSDOF 9
