REMARK  Name = C:\Users\Maximilian\Desktop\Conformers\converted_pdb\conformers_pdb\T5342126_conf_21.pdb
REMARK  9 active torsions:
REMARK  status: ('A' for Active; 'I' for Inactive)
REMARK    1  A    between atoms: N6_1  and  C12_20
REMARK    2  A    between atoms: C18_5  and  C19_6
REMARK    3  A    between atoms: C19_6  and  N9_7
REMARK    4  A    between atoms: N9_7  and  C22_9
REMARK    5  A    between atoms: C22_9  and  N11_11
REMARK    6  A    between atoms: N11_11  and  C23_13
REMARK    7  A    between atoms: C12_20  and  C13_21
REMARK    8  A    between atoms: C15_23  and  S2_27
REMARK    9  A    between atoms: S2_27  and  N10_30
REMARK                            x       y       z     vdW  Elec       q    Type
REMARK                         _______ _______ _______ _____ _____    ______ ____
ROOT
ATOM      1  N6  UNK     0      -1.960  -1.858   1.083  0.00  0.00    +0.000 N 
ATOM      2  N7  UNK     0      -2.001  -1.315   2.290  0.00  0.00    +0.000 NA
ATOM      3  N8  UNK     0      -0.795  -0.898   2.648  0.00  0.00    +0.000 NA
ATOM      4  C17 UNK     0      -0.700  -1.785   0.623  0.00  0.00    +0.000 A 
ATOM      5  C18 UNK     0       0.034  -1.194   1.626  0.00  0.00    +0.000 A 
ENDROOT
BRANCH   5   6
ATOM      6  C19 UNK     0       1.478  -0.808   1.566  0.00  0.00    +0.000 C 
BRANCH   6   7
ATOM      7  N9  UNK     0       1.635   0.500   0.930  0.00  0.00    +0.000 N 
ATOM      8  H38 UNK     0       0.784   1.055   0.680  0.00  0.00    +0.000 HD
BRANCH   7   9
ATOM      9  C22 UNK     0       2.922   1.027   0.576  0.00  0.00    +0.000 C 
ATOM     10  S3  UNK     0       3.001   2.492  -0.160  0.00  0.00    +0.000 S 
BRANCH   9  11
ATOM     11  N11 UNK     0       4.125   0.370   1.012  0.00  0.00    +0.000 N 
ATOM     12  H41 UNK     0       4.106  -0.134   1.927  0.00  0.00    +0.000 HD
BRANCH  11  13
ATOM     13  C23 UNK     0       5.370   0.405   0.293  0.00  0.00    +0.000 A 
ATOM     14  C24 UNK     0       5.401   0.468  -1.112  0.00  0.00    +0.000 A 
ATOM     15  C26 UNK     0       6.623   0.475  -1.791  0.00  0.00    +0.000 A 
ATOM     16  C28 UNK     0       7.823   0.405  -1.077  0.00  0.00    +0.000 A 
ATOM     17  I1  UNK     0       9.666   0.415  -2.103  0.00  0.00    +0.000 I 
ATOM     18  C27 UNK     0       7.799   0.320   0.319  0.00  0.00    +0.000 A 
ATOM     19  C25 UNK     0       6.578   0.312   1.000  0.00  0.00    +0.000 A 
ENDBRANCH  11  13
ENDBRANCH   9  11
ENDBRANCH   7   9
ENDBRANCH   6   7
ENDBRANCH   5   6
BRANCH   1  20
ATOM     20  C12 UNK     0      -3.128  -2.335   0.352  0.00  0.00    +0.000 C 
BRANCH  20  21
ATOM     21  C13 UNK     0      -3.656  -1.242  -0.534  0.00  0.00    +0.000 A 
ATOM     22  C14 UNK     0      -4.519  -0.265  -0.012  0.00  0.00    +0.000 A 
ATOM     23  C15 UNK     0      -4.976   0.784  -0.822  0.00  0.00    +0.000 A 
ATOM     24  C20 UNK     0      -4.571   0.852  -2.162  0.00  0.00    +0.000 A 
ATOM     25  C21 UNK     0      -3.701  -0.110  -2.682  0.00  0.00    +0.000 A 
ATOM     26  C16 UNK     0      -3.238  -1.149  -1.871  0.00  0.00    +0.000 A 
BRANCH  23  27
ATOM     27  S2  UNK     0      -6.073   1.995  -0.168  0.00  0.00    +0.000 S 
ATOM     28  O5  UNK     0      -5.850   3.311  -0.861  0.00  0.00    +0.000 OA
ATOM     29  O4  UNK     0      -5.814   2.176   1.302  0.00  0.00    +0.000 OA
BRANCH  27  30
ATOM     30  N10 UNK     0      -7.706   1.481  -0.407  0.00  0.00    +0.000 NA
ATOM     31  H40 UNK     0      -7.858   1.418  -1.439  0.00  0.00    +0.000 HD
ATOM     32  H39 UNK     0      -8.322   2.249  -0.058  0.00  0.00    +0.000 HD
ENDBRANCH  27  30
ENDBRANCH  23  27
ENDBRANCH  20  21
ENDBRANCH   1  20
TORSDOF 9
