REMARK  Name = C:\Users\Maximilian\Desktop\Conformers\converted_pdb\conformers_pdb\T5342126_conf_62.pdb
REMARK  9 active torsions:
REMARK  status: ('A' for Active; 'I' for Inactive)
REMARK    1  A    between atoms: N6_1  and  C12_20
REMARK    2  A    between atoms: C18_5  and  C19_6
REMARK    3  A    between atoms: C19_6  and  N9_7
REMARK    4  A    between atoms: N9_7  and  C22_9
REMARK    5  A    between atoms: C22_9  and  N11_11
REMARK    6  A    between atoms: N11_11  and  C23_13
REMARK    7  A    between atoms: C12_20  and  C13_21
REMARK    8  A    between atoms: C15_23  and  S2_27
REMARK    9  A    between atoms: S2_27  and  N10_30
REMARK                            x       y       z     vdW  Elec       q    Type
REMARK                         _______ _______ _______ _____ _____    ______ ____
ROOT
ATOM      1  N6  UNK     0      -1.243  -2.344   0.296  0.00  0.00    +0.000 N 
ATOM      2  N7  UNK     0      -0.740  -2.865   1.404  0.00  0.00    +0.000 NA
ATOM      3  N8  UNK     0       0.507  -2.451   1.582  0.00  0.00    +0.000 NA
ATOM      4  C17 UNK     0      -0.314  -1.553  -0.266  0.00  0.00    +0.000 A 
ATOM      5  C18 UNK     0       0.788  -1.622   0.556  0.00  0.00    +0.000 A 
ENDROOT
BRANCH   5   6
ATOM      6  C19 UNK     0       2.111  -0.965   0.331  0.00  0.00    +0.000 C 
BRANCH   6   7
ATOM      7  N9  UNK     0       2.915  -1.773  -0.585  0.00  0.00    +0.000 N 
ATOM      8  H38 UNK     0       2.964  -2.805  -0.424  0.00  0.00    +0.000 HD
BRANCH   7   9
ATOM      9  C22 UNK     0       3.595  -1.226  -1.726  0.00  0.00    +0.000 C 
ATOM     10  S3  UNK     0       3.902  -2.194  -3.009  0.00  0.00    +0.000 S 
BRANCH   9  11
ATOM     11  N11 UNK     0       3.934   0.166  -1.805  0.00  0.00    +0.000 N 
ATOM     12  H41 UNK     0       3.833   0.640  -2.732  0.00  0.00    +0.000 HD
BRANCH  11  13
ATOM     13  C23 UNK     0       4.492   0.920  -0.715  0.00  0.00    +0.000 A 
ATOM     14  C24 UNK     0       4.392   2.319  -0.722  0.00  0.00    +0.000 A 
ATOM     15  C26 UNK     0       4.936   3.074   0.322  0.00  0.00    +0.000 A 
ATOM     16  C28 UNK     0       5.596   2.437   1.377  0.00  0.00    +0.000 A 
ATOM     17  I1  UNK     0       6.417   3.576   2.950  0.00  0.00    +0.000 I 
ATOM     18  C27 UNK     0       5.717   1.044   1.384  0.00  0.00    +0.000 A 
ATOM     19  C25 UNK     0       5.175   0.287   0.341  0.00  0.00    +0.000 A 
ENDBRANCH  11  13
ENDBRANCH   9  11
ENDBRANCH   7   9
ENDBRANCH   6   7
ENDBRANCH   5   6
BRANCH   1  20
ATOM     20  C12 UNK     0      -2.613  -2.541  -0.162  0.00  0.00    +0.000 C 
BRANCH  20  21
ATOM     21  C13 UNK     0      -3.500  -1.473   0.413  0.00  0.00    +0.000 A 
ATOM     22  C14 UNK     0      -3.635  -0.239  -0.242  0.00  0.00    +0.000 A 
ATOM     23  C15 UNK     0      -4.424   0.777   0.315  0.00  0.00    +0.000 A 
ATOM     24  C20 UNK     0      -5.084   0.555   1.531  0.00  0.00    +0.000 A 
ATOM     25  C21 UNK     0      -4.939  -0.666   2.195  0.00  0.00    +0.000 A 
ATOM     26  C16 UNK     0      -4.145  -1.675   1.644  0.00  0.00    +0.000 A 
BRANCH  23  27
ATOM     27  S2  UNK     0      -4.603   2.315  -0.525  0.00  0.00    +0.000 S 
ATOM     28  O5  UNK     0      -3.324   2.655  -1.237  0.00  0.00    +0.000 OA
ATOM     29  O4  UNK     0      -4.908   3.405   0.464  0.00  0.00    +0.000 OA
BRANCH  27  30
ATOM     30  N10 UNK     0      -5.891   2.202  -1.672  0.00  0.00    +0.000 NA
ATOM     31  H40 UNK     0      -5.656   1.416  -2.318  0.00  0.00    +0.000 HD
ATOM     32  H39 UNK     0      -6.745   1.914  -1.145  0.00  0.00    +0.000 HD
ENDBRANCH  27  30
ENDBRANCH  23  27
ENDBRANCH  20  21
ENDBRANCH   1  20
TORSDOF 9
