REMARK  Name = C:\Users\Maximilian\Desktop\Conformers\converted_pdb\conformers_pdb\T5342126_conf_31.pdb
REMARK  9 active torsions:
REMARK  status: ('A' for Active; 'I' for Inactive)
REMARK    1  A    between atoms: N6_1  and  C12_20
REMARK    2  A    between atoms: C18_5  and  C19_6
REMARK    3  A    between atoms: C19_6  and  N9_7
REMARK    4  A    between atoms: N9_7  and  C22_9
REMARK    5  A    between atoms: C22_9  and  N11_11
REMARK    6  A    between atoms: N11_11  and  C23_13
REMARK    7  A    between atoms: C12_20  and  C13_21
REMARK    8  A    between atoms: C15_23  and  S2_27
REMARK    9  A    between atoms: S2_27  and  N10_30
REMARK                            x       y       z     vdW  Elec       q    Type
REMARK                         _______ _______ _______ _____ _____    ______ ____
ROOT
ATOM      1  N6  UNK     0       1.885   2.677  -0.692  0.00  0.00    +0.000 N 
ATOM      2  N7  UNK     0       1.665   2.755   0.611  0.00  0.00    +0.000 NA
ATOM      3  N8  UNK     0       0.363   2.717   0.859  0.00  0.00    +0.000 NA
ATOM      4  C17 UNK     0       0.704   2.569  -1.322  0.00  0.00    +0.000 A 
ATOM      5  C18 UNK     0      -0.255   2.600  -0.334  0.00  0.00    +0.000 A 
ENDROOT
BRANCH   5   6
ATOM      6  C19 UNK     0      -1.730   2.433  -0.512  0.00  0.00    +0.000 C 
BRANCH   6   7
ATOM      7  N9  UNK     0      -2.185   1.214   0.154  0.00  0.00    +0.000 N 
ATOM      8  H38 UNK     0      -2.635   1.321   1.091  0.00  0.00    +0.000 HD
BRANCH   7   9
ATOM      9  C22 UNK     0      -2.027  -0.111  -0.390  0.00  0.00    +0.000 C 
ATOM     10  S3  UNK     0      -1.070  -0.381  -1.696  0.00  0.00    +0.000 S 
BRANCH   9  11
ATOM     11  N11 UNK     0      -2.588  -1.244   0.292  0.00  0.00    +0.000 N 
ATOM     12  H41 UNK     0      -2.087  -2.158   0.219  0.00  0.00    +0.000 HD
BRANCH  11  13
ATOM     13  C23 UNK     0      -3.795  -1.195   1.071  0.00  0.00    +0.000 A 
ATOM     14  C24 UNK     0      -4.839  -0.308   0.749  0.00  0.00    +0.000 A 
ATOM     15  C26 UNK     0      -6.014  -0.297   1.506  0.00  0.00    +0.000 A 
ATOM     16  C28 UNK     0      -6.165  -1.180   2.580  0.00  0.00    +0.000 A 
ATOM     17  I1  UNK     0      -7.940  -1.165   3.719  0.00  0.00    +0.000 I 
ATOM     18  C27 UNK     0      -5.142  -2.080   2.891  0.00  0.00    +0.000 A 
ATOM     19  C25 UNK     0      -3.965  -2.093   2.136  0.00  0.00    +0.000 A 
ENDBRANCH  11  13
ENDBRANCH   9  11
ENDBRANCH   7   9
ENDBRANCH   6   7
ENDBRANCH   5   6
BRANCH   1  20
ATOM     20  C12 UNK     0       3.205   2.554  -1.300  0.00  0.00    +0.000 C 
BRANCH  20  21
ATOM     21  C13 UNK     0       3.504   1.105  -1.568  0.00  0.00    +0.000 A 
ATOM     22  C14 UNK     0       3.947   0.274  -0.528  0.00  0.00    +0.000 A 
ATOM     23  C15 UNK     0       4.162  -1.093  -0.754  0.00  0.00    +0.000 A 
ATOM     24  C20 UNK     0       3.914  -1.632  -2.024  0.00  0.00    +0.000 A 
ATOM     25  C21 UNK     0       3.462  -0.811  -3.059  0.00  0.00    +0.000 A 
ATOM     26  C16 UNK     0       3.252   0.552  -2.834  0.00  0.00    +0.000 A 
BRANCH  23  27
ATOM     27  S2  UNK     0       4.688  -2.132   0.566  0.00  0.00    +0.000 S 
ATOM     28  O5  UNK     0       5.620  -1.372   1.468  0.00  0.00    +0.000 OA
ATOM     29  O4  UNK     0       5.416  -3.327   0.018  0.00  0.00    +0.000 OA
BRANCH  27  30
ATOM     30  N10 UNK     0       3.313  -2.660   1.469  0.00  0.00    +0.000 NA
ATOM     31  H40 UNK     0       2.668  -3.131   0.796  0.00  0.00    +0.000 HD
ATOM     32  H39 UNK     0       2.821  -1.802   1.806  0.00  0.00    +0.000 HD
ENDBRANCH  27  30
ENDBRANCH  23  27
ENDBRANCH  20  21
ENDBRANCH   1  20
TORSDOF 9
