REMARK  Name = C:\Users\Maximilian\Desktop\Conformers\converted_pdb\conformers_pdb\T5342126_conf_36.pdb
REMARK  9 active torsions:
REMARK  status: ('A' for Active; 'I' for Inactive)
REMARK    1  A    between atoms: N6_1  and  C12_20
REMARK    2  A    between atoms: C18_5  and  C19_6
REMARK    3  A    between atoms: C19_6  and  N9_7
REMARK    4  A    between atoms: N9_7  and  C22_9
REMARK    5  A    between atoms: C22_9  and  N11_11
REMARK    6  A    between atoms: N11_11  and  C23_13
REMARK    7  A    between atoms: C12_20  and  C13_21
REMARK    8  A    between atoms: C15_23  and  S2_27
REMARK    9  A    between atoms: S2_27  and  N10_30
REMARK                            x       y       z     vdW  Elec       q    Type
REMARK                         _______ _______ _______ _____ _____    ______ ____
ROOT
ATOM      1  N6  UNK     0      -1.690   2.481  -0.167  0.00  0.00    +0.000 N 
ATOM      2  N7  UNK     0      -1.845   2.370  -1.477  0.00  0.00    +0.000 NA
ATOM      3  N8  UNK     0      -0.739   1.893  -2.032  0.00  0.00    +0.000 NA
ATOM      4  C17 UNK     0      -0.459   2.050   0.157  0.00  0.00    +0.000 A 
ATOM      5  C18 UNK     0       0.142   1.699  -1.031  0.00  0.00    +0.000 A 
ENDROOT
BRANCH   5   6
ATOM      6  C19 UNK     0       1.491   1.074  -1.196  0.00  0.00    +0.000 C 
BRANCH   6   7
ATOM      7  N9  UNK     0       1.414  -0.375  -1.008  0.00  0.00    +0.000 N 
ATOM      8  H38 UNK     0       0.479  -0.827  -0.878  0.00  0.00    +0.000 HD
BRANCH   7   9
ATOM      9  C22 UNK     0       2.587  -1.197  -0.928  0.00  0.00    +0.000 C 
ATOM     10  S3  UNK     0       2.406  -2.810  -0.681  0.00  0.00    +0.000 S 
BRANCH   9  11
ATOM     11  N11 UNK     0       3.882  -0.652  -1.234  0.00  0.00    +0.000 N 
ATOM     12  H41 UNK     0       3.940   0.104  -1.952  0.00  0.00    +0.000 HD
BRANCH  11  13
ATOM     13  C23 UNK     0       5.112  -1.119  -0.652  0.00  0.00    +0.000 A 
ATOM     14  C24 UNK     0       6.305  -1.012  -1.384  0.00  0.00    +0.000 A 
ATOM     15  C26 UNK     0       7.516  -1.436  -0.828  0.00  0.00    +0.000 A 
ATOM     16  C28 UNK     0       7.548  -1.956   0.470  0.00  0.00    +0.000 A 
ATOM     17  I1  UNK     0       9.376  -2.592   1.308  0.00  0.00    +0.000 I 
ATOM     18  C27 UNK     0       6.368  -2.045   1.214  0.00  0.00    +0.000 A 
ATOM     19  C25 UNK     0       5.156  -1.622   0.661  0.00  0.00    +0.000 A 
ENDBRANCH  11  13
ENDBRANCH   9  11
ENDBRANCH   7   9
ENDBRANCH   6   7
ENDBRANCH   5   6
BRANCH   1  20
ATOM     20  C12 UNK     0      -2.744   2.881   0.757  0.00  0.00    +0.000 C 
BRANCH  20  21
ATOM     21  C13 UNK     0      -3.488   1.667   1.237  0.00  0.00    +0.000 A 
ATOM     22  C14 UNK     0      -4.548   1.144   0.479  0.00  0.00    +0.000 A 
ATOM     23  C15 UNK     0      -5.216  -0.015   0.898  0.00  0.00    +0.000 A 
ATOM     24  C20 UNK     0      -4.806  -0.666   2.070  0.00  0.00    +0.000 A 
ATOM     25  C21 UNK     0      -3.742  -0.157   2.820  0.00  0.00    +0.000 A 
ATOM     26  C16 UNK     0      -3.081   1.002   2.404  0.00  0.00    +0.000 A 
BRANCH  23  27
ATOM     27  S2  UNK     0      -6.534  -0.669  -0.067  0.00  0.00    +0.000 S 
ATOM     28  O5  UNK     0      -7.328   0.458  -0.667  0.00  0.00    +0.000 OA
ATOM     29  O4  UNK     0      -7.445  -1.493   0.800  0.00  0.00    +0.000 OA
BRANCH  27  30
ATOM     30  N10 UNK     0      -5.886  -1.661  -1.326  0.00  0.00    +0.000 NA
ATOM     31  H40 UNK     0      -5.294  -1.044  -1.926  0.00  0.00    +0.000 HD
ATOM     32  H39 UNK     0      -6.691  -1.972  -1.915  0.00  0.00    +0.000 HD
ENDBRANCH  27  30
ENDBRANCH  23  27
ENDBRANCH  20  21
ENDBRANCH   1  20
TORSDOF 9
