REMARK  Name = C:\Users\Maximilian\Desktop\Conformers\converted_pdb\conformers_pdb\T5342126_conf_75.pdb
REMARK  9 active torsions:
REMARK  status: ('A' for Active; 'I' for Inactive)
REMARK    1  A    between atoms: N6_1  and  C12_20
REMARK    2  A    between atoms: C18_5  and  C19_6
REMARK    3  A    between atoms: C19_6  and  N9_7
REMARK    4  A    between atoms: N9_7  and  C22_9
REMARK    5  A    between atoms: C22_9  and  N11_11
REMARK    6  A    between atoms: N11_11  and  C23_13
REMARK    7  A    between atoms: C12_20  and  C13_21
REMARK    8  A    between atoms: C15_23  and  S2_27
REMARK    9  A    between atoms: S2_27  and  N10_30
REMARK                            x       y       z     vdW  Elec       q    Type
REMARK                         _______ _______ _______ _____ _____    ______ ____
ROOT
ATOM      1  N6  UNK     0       2.120   1.491   1.446  0.00  0.00    +0.000 N 
ATOM      2  N7  UNK     0       1.603   2.641   1.046  0.00  0.00    +0.000 NA
ATOM      3  N8  UNK     0       0.360   2.463   0.620  0.00  0.00    +0.000 NA
ATOM      4  C17 UNK     0       1.206   0.523   1.265  0.00  0.00    +0.000 A 
ATOM      5  C18 UNK     0       0.098   1.145   0.737  0.00  0.00    +0.000 A 
ENDROOT
BRANCH   5   6
ATOM      6  C19 UNK     0      -1.219   0.509   0.420  0.00  0.00    +0.000 C 
BRANCH   6   7
ATOM      7  N9  UNK     0      -2.083   0.496   1.599  0.00  0.00    +0.000 N 
ATOM      8  H38 UNK     0      -1.705   0.827   2.517  0.00  0.00    +0.000 HD
BRANCH   7   9
ATOM      9  C22 UNK     0      -3.461   0.103   1.530  0.00  0.00    +0.000 C 
ATOM     10  S3  UNK     0      -4.366   0.147   2.900  0.00  0.00    +0.000 S 
BRANCH   9  11
ATOM     11  N11 UNK     0      -3.993  -0.487   0.331  0.00  0.00    +0.000 N 
ATOM     12  H41 UNK     0      -3.354  -1.070  -0.254  0.00  0.00    +0.000 HD
BRANCH  11  13
ATOM     13  C23 UNK     0      -5.364  -0.371  -0.087  0.00  0.00    +0.000 A 
ATOM     14  C24 UNK     0      -5.942  -1.398  -0.849  0.00  0.00    +0.000 A 
ATOM     15  C26 UNK     0      -7.266  -1.294  -1.287  0.00  0.00    +0.000 A 
ATOM     16  C28 UNK     0      -8.019  -0.157  -0.980  0.00  0.00    +0.000 A 
ATOM     17  I1  UNK     0     -10.015  -0.002  -1.644  0.00  0.00    +0.000 I 
ATOM     18  C27 UNK     0      -7.445   0.880  -0.240  0.00  0.00    +0.000 A 
ATOM     19  C25 UNK     0      -6.121   0.779   0.200  0.00  0.00    +0.000 A 
ENDBRANCH  11  13
ENDBRANCH   9  11
ENDBRANCH   7   9
ENDBRANCH   6   7
ENDBRANCH   5   6
BRANCH   1  20
ATOM     20  C12 UNK     0       3.491   1.319   1.913  0.00  0.00    +0.000 C 
BRANCH  20  21
ATOM     21  C13 UNK     0       4.384   0.977   0.754  0.00  0.00    +0.000 A 
ATOM     22  C14 UNK     0       4.547  -0.360   0.359  0.00  0.00    +0.000 A 
ATOM     23  C15 UNK     0       5.343  -0.680  -0.750  0.00  0.00    +0.000 A 
ATOM     24  C20 UNK     0       5.961   0.345  -1.479  0.00  0.00    +0.000 A 
ATOM     25  C21 UNK     0       5.791   1.678  -1.097  0.00  0.00    +0.000 A 
ATOM     26  C16 UNK     0       5.002   1.996   0.011  0.00  0.00    +0.000 A 
BRANCH  23  27
ATOM     27  S2  UNK     0       5.524  -2.360  -1.245  0.00  0.00    +0.000 S 
ATOM     28  O5  UNK     0       5.599  -3.240  -0.029  0.00  0.00    +0.000 OA
ATOM     29  O4  UNK     0       6.790  -2.528  -2.038  0.00  0.00    +0.000 OA
BRANCH  27  30
ATOM     30  N10 UNK     0       4.172  -2.828  -2.215  0.00  0.00    +0.000 NA
ATOM     31  H40 UNK     0       3.315  -2.664  -1.642  0.00  0.00    +0.000 HD
ATOM     32  H39 UNK     0       4.129  -2.162  -3.019  0.00  0.00    +0.000 HD
ENDBRANCH  27  30
ENDBRANCH  23  27
ENDBRANCH  20  21
ENDBRANCH   1  20
TORSDOF 9
