REMARK  Name = C:\Users\Maximilian\Desktop\Conformers\converted_pdb\conformers_pdb\T5342126_conf_22.pdb
REMARK  9 active torsions:
REMARK  status: ('A' for Active; 'I' for Inactive)
REMARK    1  A    between atoms: N6_1  and  C12_20
REMARK    2  A    between atoms: C18_5  and  C19_6
REMARK    3  A    between atoms: C19_6  and  N9_7
REMARK    4  A    between atoms: N9_7  and  C22_9
REMARK    5  A    between atoms: C22_9  and  N11_11
REMARK    6  A    between atoms: N11_11  and  C23_13
REMARK    7  A    between atoms: C12_20  and  C13_21
REMARK    8  A    between atoms: C15_23  and  S2_27
REMARK    9  A    between atoms: S2_27  and  N10_30
REMARK                            x       y       z     vdW  Elec       q    Type
REMARK                         _______ _______ _______ _____ _____    ______ ____
ROOT
ATOM      1  N6  UNK     0      -1.952  -1.789   1.558  0.00  0.00    +0.000 N 
ATOM      2  N7  UNK     0      -1.940  -1.027   2.640  0.00  0.00    +0.000 NA
ATOM      3  N8  UNK     0      -0.734  -0.507   2.823  0.00  0.00    +0.000 NA
ATOM      4  C17 UNK     0      -0.731  -1.760   0.999  0.00  0.00    +0.000 A 
ATOM      5  C18 UNK     0       0.039  -0.962   1.817  0.00  0.00    +0.000 A 
ENDROOT
BRANCH   5   6
ATOM      6  C19 UNK     0       1.454  -0.541   1.577  0.00  0.00    +0.000 C 
BRANCH   6   7
ATOM      7  N9  UNK     0       1.500   0.646   0.724  0.00  0.00    +0.000 N 
ATOM      8  H38 UNK     0       0.607   1.117   0.450  0.00  0.00    +0.000 HD
BRANCH   7   9
ATOM      9  C22 UNK     0       2.731   1.155   0.192  0.00  0.00    +0.000 C 
ATOM     10  S3  UNK     0       2.686   2.481  -0.776  0.00  0.00    +0.000 S 
BRANCH   9  11
ATOM     11  N11 UNK     0       3.993   0.629   0.641  0.00  0.00    +0.000 N 
ATOM     12  H41 UNK     0       4.063   0.298   1.628  0.00  0.00    +0.000 HD
BRANCH  11  13
ATOM     13  C23 UNK     0       5.183   0.584  -0.166  0.00  0.00    +0.000 A 
ATOM     14  C24 UNK     0       5.114   0.417  -1.562  0.00  0.00    +0.000 A 
ATOM     15  C26 UNK     0       6.286   0.349  -2.323  0.00  0.00    +0.000 A 
ATOM     16  C28 UNK     0       7.534   0.433  -1.697  0.00  0.00    +0.000 A 
ATOM     17  I1  UNK     0       9.299   0.329  -2.847  0.00  0.00    +0.000 I 
ATOM     18  C27 UNK     0       7.610   0.579  -0.309  0.00  0.00    +0.000 A 
ATOM     19  C25 UNK     0       6.440   0.647   0.454  0.00  0.00    +0.000 A 
ENDBRANCH  11  13
ENDBRANCH   9  11
ENDBRANCH   7   9
ENDBRANCH   6   7
ENDBRANCH   5   6
BRANCH   1  20
ATOM     20  C12 UNK     0      -3.142  -2.435   1.017  0.00  0.00    +0.000 C 
BRANCH  20  21
ATOM     21  C13 UNK     0      -3.762  -1.560  -0.037  0.00  0.00    +0.000 A 
ATOM     22  C14 UNK     0      -4.600  -0.497   0.334  0.00  0.00    +0.000 A 
ATOM     23  C15 UNK     0      -5.145   0.349  -0.642  0.00  0.00    +0.000 A 
ATOM     24  C20 UNK     0      -4.834   0.142  -1.993  0.00  0.00    +0.000 A 
ATOM     25  C21 UNK     0      -3.988  -0.907  -2.365  0.00  0.00    +0.000 A 
ATOM     26  C16 UNK     0      -3.449  -1.753  -1.392  0.00  0.00    +0.000 A 
BRANCH  23  27
ATOM     27  S2  UNK     0      -6.182   1.691  -0.169  0.00  0.00    +0.000 S 
ATOM     28  O5  UNK     0      -6.944   1.331   1.076  0.00  0.00    +0.000 OA
ATOM     29  O4  UNK     0      -7.165   1.986  -1.267  0.00  0.00    +0.000 OA
BRANCH  27  30
ATOM     30  N10 UNK     0      -5.211   3.090   0.127  0.00  0.00    +0.000 NA
ATOM     31  H40 UNK     0      -5.848   3.831   0.497  0.00  0.00    +0.000 HD
ATOM     32  H39 UNK     0      -4.552   2.845   0.900  0.00  0.00    +0.000 HD
ENDBRANCH  27  30
ENDBRANCH  23  27
ENDBRANCH  20  21
ENDBRANCH   1  20
TORSDOF 9
