REMARK  Name = C:\Users\Maximilian\Desktop\Conformers\converted_pdb\conformers_pdb\T5342126_conf_35.pdb
REMARK  9 active torsions:
REMARK  status: ('A' for Active; 'I' for Inactive)
REMARK    1  A    between atoms: N6_1  and  C12_20
REMARK    2  A    between atoms: C18_5  and  C19_6
REMARK    3  A    between atoms: C19_6  and  N9_7
REMARK    4  A    between atoms: N9_7  and  C22_9
REMARK    5  A    between atoms: C22_9  and  N11_11
REMARK    6  A    between atoms: N11_11  and  C23_13
REMARK    7  A    between atoms: C12_20  and  C13_21
REMARK    8  A    between atoms: C15_23  and  S2_27
REMARK    9  A    between atoms: S2_27  and  N10_30
REMARK                            x       y       z     vdW  Elec       q    Type
REMARK                         _______ _______ _______ _____ _____    ______ ____
ROOT
ATOM      1  N6  UNK     0       1.826  -0.208   1.581  0.00  0.00    +0.000 N 
ATOM      2  N7  UNK     0       1.765  -1.515   1.779  0.00  0.00    +0.000 NA
ATOM      3  N8  UNK     0       0.574  -1.979   1.427  0.00  0.00    +0.000 NA
ATOM      4  C17 UNK     0       0.653   0.203   1.069  0.00  0.00    +0.000 A 
ATOM      5  C18 UNK     0      -0.131  -0.924   0.971  0.00  0.00    +0.000 A 
ENDROOT
BRANCH   5   6
ATOM      6  C19 UNK     0      -1.556  -0.985   0.520  0.00  0.00    +0.000 C 
BRANCH   6   7
ATOM      7  N9  UNK     0      -2.460  -0.687   1.631  0.00  0.00    +0.000 N 
ATOM      8  H38 UNK     0      -2.069  -0.561   2.593  0.00  0.00    +0.000 HD
BRANCH   7   9
ATOM      9  C22 UNK     0      -3.869  -0.496   1.436  0.00  0.00    +0.000 C 
ATOM     10  S3  UNK     0      -4.805  -0.132   2.735  0.00  0.00    +0.000 S 
BRANCH   9  11
ATOM     11  N11 UNK     0      -4.477  -0.791   0.166  0.00  0.00    +0.000 N 
ATOM     12  H41 UNK     0      -4.069  -1.564  -0.406  0.00  0.00    +0.000 HD
BRANCH  11  13
ATOM     13  C23 UNK     0      -5.645  -0.125  -0.344  0.00  0.00    +0.000 A 
ATOM     14  C24 UNK     0      -6.508  -0.812  -1.211  0.00  0.00    +0.000 A 
ATOM     15  C26 UNK     0      -7.636  -0.176  -1.739  0.00  0.00    +0.000 A 
ATOM     16  C28 UNK     0      -7.902   1.159  -1.418  0.00  0.00    +0.000 A 
ATOM     17  I1  UNK     0      -9.601   2.118  -2.217  0.00  0.00    +0.000 I 
ATOM     18  C27 UNK     0      -7.035   1.859  -0.573  0.00  0.00    +0.000 A 
ATOM     19  C25 UNK     0      -5.907   1.224  -0.043  0.00  0.00    +0.000 A 
ENDBRANCH  11  13
ENDBRANCH   9  11
ENDBRANCH   7   9
ENDBRANCH   6   7
ENDBRANCH   5   6
BRANCH   1  20
ATOM     20  C12 UNK     0       3.013   0.608   1.806  0.00  0.00    +0.000 C 
BRANCH  20  21
ATOM     21  C13 UNK     0       3.827   0.682   0.546  0.00  0.00    +0.000 A 
ATOM     22  C14 UNK     0       4.768  -0.318   0.253  0.00  0.00    +0.000 A 
ATOM     23  C15 UNK     0       5.498  -0.276  -0.944  0.00  0.00    +0.000 A 
ATOM     24  C20 UNK     0       5.286   0.773  -1.849  0.00  0.00    +0.000 A 
ATOM     25  C21 UNK     0       4.339   1.762  -1.569  0.00  0.00    +0.000 A 
ATOM     26  C16 UNK     0       3.606   1.714  -0.380  0.00  0.00    +0.000 A 
BRANCH  23  27
ATOM     27  S2  UNK     0       6.693  -1.522  -1.294  0.00  0.00    +0.000 S 
ATOM     28  O5  UNK     0       6.843  -1.682  -2.780  0.00  0.00    +0.000 OA
ATOM     29  O4  UNK     0       6.244  -2.833  -0.712  0.00  0.00    +0.000 OA
BRANCH  27  30
ATOM     30  N10 UNK     0       8.214  -1.075  -0.606  0.00  0.00    +0.000 NA
ATOM     31  H40 UNK     0       8.057  -0.937   0.418  0.00  0.00    +0.000 HD
ATOM     32  H39 UNK     0       8.465  -0.142  -1.001  0.00  0.00    +0.000 HD
ENDBRANCH  27  30
ENDBRANCH  23  27
ENDBRANCH  20  21
ENDBRANCH   1  20
TORSDOF 9
