REMARK  Name = C:\Users\Maximilian\Desktop\Conformers\converted_pdb\conformers_pdb\T5342126_conf_76.pdb
REMARK  9 active torsions:
REMARK  status: ('A' for Active; 'I' for Inactive)
REMARK    1  A    between atoms: N6_1  and  C12_20
REMARK    2  A    between atoms: C18_5  and  C19_6
REMARK    3  A    between atoms: C19_6  and  N9_7
REMARK    4  A    between atoms: N9_7  and  C22_9
REMARK    5  A    between atoms: C22_9  and  N11_11
REMARK    6  A    between atoms: N11_11  and  C23_13
REMARK    7  A    between atoms: C12_20  and  C13_21
REMARK    8  A    between atoms: C15_23  and  S2_27
REMARK    9  A    between atoms: S2_27  and  N10_30
REMARK                            x       y       z     vdW  Elec       q    Type
REMARK                         _______ _______ _______ _____ _____    ______ ____
ROOT
ATOM      1  N6  UNK     0      -1.595   2.887  -0.095  0.00  0.00    +0.000 N 
ATOM      2  N7  UNK     0      -0.762   3.226  -1.066  0.00  0.00    +0.000 NA
ATOM      3  N8  UNK     0       0.493   3.030  -0.685  0.00  0.00    +0.000 NA
ATOM      4  C17 UNK     0      -0.877   2.440   0.949  0.00  0.00    +0.000 A 
ATOM      5  C18 UNK     0       0.443   2.539   0.570  0.00  0.00    +0.000 A 
ENDROOT
BRANCH   5   6
ATOM      6  C19 UNK     0       1.634   2.083   1.350  0.00  0.00    +0.000 C 
BRANCH   6   7
ATOM      7  N9  UNK     0       2.266   0.943   0.686  0.00  0.00    +0.000 N 
ATOM      8  H38 UNK     0       3.104   1.140   0.095  0.00  0.00    +0.000 HD
BRANCH   7   9
ATOM      9  C22 UNK     0       1.790  -0.414   0.782  0.00  0.00    +0.000 C 
ATOM     10  S3  UNK     0       0.317  -0.751   1.424  0.00  0.00    +0.000 S 
BRANCH   9  11
ATOM     11  N11 UNK     0       2.536  -1.484   0.183  0.00  0.00    +0.000 N 
ATOM     12  H41 UNK     0       2.005  -2.308  -0.182  0.00  0.00    +0.000 HD
BRANCH  11  13
ATOM     13  C23 UNK     0       3.967  -1.492   0.055  0.00  0.00    +0.000 A 
ATOM     14  C24 UNK     0       4.791  -0.851   0.998  0.00  0.00    +0.000 A 
ATOM     15  C26 UNK     0       6.182  -0.895   0.866  0.00  0.00    +0.000 A 
ATOM     16  C28 UNK     0       6.764  -1.590  -0.198  0.00  0.00    +0.000 A 
ATOM     17  I1  UNK     0       8.863  -1.657  -0.394  0.00  0.00    +0.000 I 
ATOM     18  C27 UNK     0       5.953  -2.249  -1.127  0.00  0.00    +0.000 A 
ATOM     19  C25 UNK     0       4.561  -2.207  -0.997  0.00  0.00    +0.000 A 
ENDBRANCH  11  13
ENDBRANCH   9  11
ENDBRANCH   7   9
ENDBRANCH   6   7
ENDBRANCH   5   6
BRANCH   1  20
ATOM     20  C12 UNK     0      -3.045   2.836  -0.233  0.00  0.00    +0.000 C 
BRANCH  20  21
ATOM     21  C13 UNK     0      -3.454   1.486  -0.752  0.00  0.00    +0.000 A 
ATOM     22  C14 UNK     0      -3.559   0.396   0.128  0.00  0.00    +0.000 A 
ATOM     23  C15 UNK     0      -3.868  -0.882  -0.359  0.00  0.00    +0.000 A 
ATOM     24  C20 UNK     0      -4.085  -1.067  -1.731  0.00  0.00    +0.000 A 
ATOM     25  C21 UNK     0      -3.974   0.013  -2.611  0.00  0.00    +0.000 A 
ATOM     26  C16 UNK     0      -3.650   1.283  -2.127  0.00  0.00    +0.000 A 
BRANCH  23  27
ATOM     27  S2  UNK     0      -3.999  -2.243   0.750  0.00  0.00    +0.000 S 
ATOM     28  O5  UNK     0      -3.085  -2.034   1.924  0.00  0.00    +0.000 OA
ATOM     29  O4  UNK     0      -3.599  -3.511   0.048  0.00  0.00    +0.000 OA
BRANCH  27  30
ATOM     30  N10 UNK     0      -5.629  -2.382   1.307  0.00  0.00    +0.000 NA
ATOM     31  H40 UNK     0      -6.234  -2.479   0.460  0.00  0.00    +0.000 HD
ATOM     32  H39 UNK     0      -5.878  -1.470   1.751  0.00  0.00    +0.000 HD
ENDBRANCH  27  30
ENDBRANCH  23  27
ENDBRANCH  20  21
ENDBRANCH   1  20
TORSDOF 9
