REMARK  Name = C:\Users\Maximilian\Desktop\Conformers\converted_pdb\conformers_pdb\T5342126_conf_80.pdb
REMARK  9 active torsions:
REMARK  status: ('A' for Active; 'I' for Inactive)
REMARK    1  A    between atoms: N6_1  and  C12_20
REMARK    2  A    between atoms: C18_5  and  C19_6
REMARK    3  A    between atoms: C19_6  and  N9_7
REMARK    4  A    between atoms: N9_7  and  C22_9
REMARK    5  A    between atoms: C22_9  and  N11_11
REMARK    6  A    between atoms: N11_11  and  C23_13
REMARK    7  A    between atoms: C12_20  and  C13_21
REMARK    8  A    between atoms: C15_23  and  S2_27
REMARK    9  A    between atoms: S2_27  and  N10_30
REMARK                            x       y       z     vdW  Elec       q    Type
REMARK                         _______ _______ _______ _____ _____    ______ ____
ROOT
ATOM      1  N6  UNK     0      -1.459  -0.922   1.635  0.00  0.00    +0.000 N 
ATOM      2  N7  UNK     0      -1.105   0.274   2.079  0.00  0.00    +0.000 NA
ATOM      3  N8  UNK     0       0.153   0.532   1.750  0.00  0.00    +0.000 NA
ATOM      4  C17 UNK     0      -0.417  -1.463   0.981  0.00  0.00    +0.000 A 
ATOM      5  C18 UNK     0       0.596  -0.535   1.054  0.00  0.00    +0.000 A 
ENDROOT
BRANCH   5   6
ATOM      6  C19 UNK     0       1.993  -0.696   0.543  0.00  0.00    +0.000 C 
BRANCH   6   7
ATOM      7  N9  UNK     0       2.821  -1.397   1.525  0.00  0.00    +0.000 N 
ATOM      8  H38 UNK     0       2.431  -1.592   2.476  0.00  0.00    +0.000 HD
BRANCH   7   9
ATOM      9  C22 UNK     0       4.075  -2.001   1.174  0.00  0.00    +0.000 C 
ATOM     10  S3  UNK     0       4.646  -3.242   2.074  0.00  0.00    +0.000 S 
BRANCH   9  11
ATOM     11  N11 UNK     0       4.769  -1.636  -0.027  0.00  0.00    +0.000 N 
ATOM     12  H41 UNK     0       5.134  -2.406  -0.632  0.00  0.00    +0.000 HD
BRANCH  11  13
ATOM     13  C23 UNK     0       5.077  -0.279  -0.387  0.00  0.00    +0.000 A 
ATOM     14  C24 UNK     0       5.390   0.026  -1.721  0.00  0.00    +0.000 A 
ATOM     15  C26 UNK     0       5.709   1.336  -2.091  0.00  0.00    +0.000 A 
ATOM     16  C28 UNK     0       5.728   2.351  -1.131  0.00  0.00    +0.000 A 
ATOM     17  I1  UNK     0       6.210   4.326  -1.691  0.00  0.00    +0.000 I 
ATOM     18  C27 UNK     0       5.434   2.055   0.204  0.00  0.00    +0.000 A 
ATOM     19  C25 UNK     0       5.117   0.745   0.578  0.00  0.00    +0.000 A 
ENDBRANCH  11  13
ENDBRANCH   9  11
ENDBRANCH   7   9
ENDBRANCH   6   7
ENDBRANCH   5   6
BRANCH   1  20
ATOM     20  C12 UNK     0      -2.795  -1.491   1.768  0.00  0.00    +0.000 C 
BRANCH  20  21
ATOM     21  C13 UNK     0      -3.643  -1.077   0.598  0.00  0.00    +0.000 A 
ATOM     22  C14 UNK     0      -4.387   0.112   0.650  0.00  0.00    +0.000 A 
ATOM     23  C15 UNK     0      -5.146   0.522  -0.456  0.00  0.00    +0.000 A 
ATOM     24  C20 UNK     0      -5.142  -0.251  -1.625  0.00  0.00    +0.000 A 
ATOM     25  C21 UNK     0      -4.391  -1.428  -1.685  0.00  0.00    +0.000 A 
ATOM     26  C16 UNK     0      -3.640  -1.839  -0.581  0.00  0.00    +0.000 A 
BRANCH  23  27
ATOM     27  S2  UNK     0      -6.071   2.018  -0.383  0.00  0.00    +0.000 S 
ATOM     28  O5  UNK     0      -6.618   2.206   1.004  0.00  0.00    +0.000 OA
ATOM     29  O4  UNK     0      -7.221   1.958  -1.350  0.00  0.00    +0.000 OA
BRANCH  27  30
ATOM     30  N10 UNK     0      -5.044   3.348  -0.785  0.00  0.00    +0.000 NA
ATOM     31  H40 UNK     0      -4.720   3.198  -1.766  0.00  0.00    +0.000 HD
ATOM     32  H39 UNK     0      -5.642   4.204  -0.792  0.00  0.00    +0.000 HD
ENDBRANCH  27  30
ENDBRANCH  23  27
ENDBRANCH  20  21
ENDBRANCH   1  20
TORSDOF 9
