REMARK  Name = C:\Users\Maximilian\Desktop\Conformers\converted_pdb\conformers_pdb\T5342126_conf_26.pdb
REMARK  9 active torsions:
REMARK  status: ('A' for Active; 'I' for Inactive)
REMARK    1  A    between atoms: N6_1  and  C12_20
REMARK    2  A    between atoms: C18_5  and  C19_6
REMARK    3  A    between atoms: C19_6  and  N9_7
REMARK    4  A    between atoms: N9_7  and  C22_9
REMARK    5  A    between atoms: C22_9  and  N11_11
REMARK    6  A    between atoms: N11_11  and  C23_13
REMARK    7  A    between atoms: C12_20  and  C13_21
REMARK    8  A    between atoms: C15_23  and  S2_27
REMARK    9  A    between atoms: S2_27  and  N10_30
REMARK                            x       y       z     vdW  Elec       q    Type
REMARK                         _______ _______ _______ _____ _____    ______ ____
ROOT
ATOM      1  N6  UNK     0      -1.764  -1.091   0.213  0.00  0.00    +0.000 N 
ATOM      2  N7  UNK     0      -1.498  -1.390  -1.048  0.00  0.00    +0.000 NA
ATOM      3  N8  UNK     0      -0.416  -0.741  -1.456  0.00  0.00    +0.000 NA
ATOM      4  C17 UNK     0      -0.847  -0.210   0.649  0.00  0.00    +0.000 A 
ATOM      5  C18 UNK     0      -0.001   0.010  -0.415  0.00  0.00    +0.000 A 
ENDROOT
BRANCH   5   6
ATOM      6  C19 UNK     0       1.229   0.861  -0.418  0.00  0.00    +0.000 C 
BRANCH   6   7
ATOM      7  N9  UNK     0       2.384   0.101   0.062  0.00  0.00    +0.000 N 
ATOM      8  H38 UNK     0       2.258  -0.898   0.345  0.00  0.00    +0.000 HD
BRANCH   7   9
ATOM      9  C22 UNK     0       3.710   0.652   0.130  0.00  0.00    +0.000 C 
ATOM     10  S3  UNK     0       3.968   2.248  -0.185  0.00  0.00    +0.000 S 
BRANCH   9  11
ATOM     11  N11 UNK     0       4.771  -0.161   0.658  0.00  0.00    +0.000 N 
ATOM     12  H41 UNK     0       4.507  -0.938   1.305  0.00  0.00    +0.000 HD
BRANCH  11  13
ATOM     13  C23 UNK     0       6.168   0.037   0.381  0.00  0.00    +0.000 A 
ATOM     14  C24 UNK     0       7.117  -0.279   1.365  0.00  0.00    +0.000 A 
ATOM     15  C26 UNK     0       8.482  -0.121   1.107  0.00  0.00    +0.000 A 
ATOM     16  C28 UNK     0       8.911   0.340  -0.141  0.00  0.00    +0.000 A 
ATOM     17  I1  UNK     0      10.971   0.576  -0.529  0.00  0.00    +0.000 I 
ATOM     18  C27 UNK     0       7.974   0.634  -1.135  0.00  0.00    +0.000 A 
ATOM     19  C25 UNK     0       6.608   0.477  -0.880  0.00  0.00    +0.000 A 
ENDBRANCH  11  13
ENDBRANCH   9  11
ENDBRANCH   7   9
ENDBRANCH   6   7
ENDBRANCH   5   6
BRANCH   1  20
ATOM     20  C12 UNK     0      -2.919  -1.584   0.953  0.00  0.00    +0.000 C 
BRANCH  20  21
ATOM     21  C13 UNK     0      -4.070  -0.631   0.795  0.00  0.00    +0.000 A 
ATOM     22  C14 UNK     0      -4.932  -0.741  -0.308  0.00  0.00    +0.000 A 
ATOM     23  C15 UNK     0      -5.980   0.174  -0.483  0.00  0.00    +0.000 A 
ATOM     24  C20 UNK     0      -6.167   1.201   0.451  0.00  0.00    +0.000 A 
ATOM     25  C21 UNK     0      -5.302   1.324   1.542  0.00  0.00    +0.000 A 
ATOM     26  C16 UNK     0      -4.253   0.417   1.711  0.00  0.00    +0.000 A 
BRANCH  23  27
ATOM     27  S2  UNK     0      -7.070   0.014  -1.857  0.00  0.00    +0.000 S 
ATOM     28  O5  UNK     0      -6.320  -0.530  -3.040  0.00  0.00    +0.000 OA
ATOM     29  O4  UNK     0      -7.632   1.360  -2.222  0.00  0.00    +0.000 OA
BRANCH  27  30
ATOM     30  N10 UNK     0      -8.364  -1.058  -1.450  0.00  0.00    +0.000 NA
ATOM     31  H40 UNK     0      -8.827  -0.667  -0.600  0.00  0.00    +0.000 HD
ATOM     32  H39 UNK     0      -7.930  -1.965  -1.167  0.00  0.00    +0.000 HD
ENDBRANCH  27  30
ENDBRANCH  23  27
ENDBRANCH  20  21
ENDBRANCH   1  20
TORSDOF 9
