REMARK  Name = C:\Users\Maximilian\Desktop\Conformers\converted_pdb\conformers_pdb\T5342126_conf_1.pdb
REMARK  9 active torsions:
REMARK  status: ('A' for Active; 'I' for Inactive)
REMARK    1  A    between atoms: N6_1  and  C12_20
REMARK    2  A    between atoms: C18_5  and  C19_6
REMARK    3  A    between atoms: C19_6  and  N9_7
REMARK    4  A    between atoms: N9_7  and  C22_9
REMARK    5  A    between atoms: C22_9  and  N11_11
REMARK    6  A    between atoms: N11_11  and  C23_13
REMARK    7  A    between atoms: C12_20  and  C13_21
REMARK    8  A    between atoms: C15_23  and  S2_27
REMARK    9  A    between atoms: S2_27  and  N10_30
REMARK                            x       y       z     vdW  Elec       q    Type
REMARK                         _______ _______ _______ _____ _____    ______ ____
ROOT
ATOM      1  N6  UNK     0       0.738   0.608   0.557  0.00  0.00    +0.000 N 
ATOM      2  N7  UNK     0       1.031   0.529   1.846  0.00  0.00    +0.000 NA
ATOM      3  N8  UNK     0       0.416  -0.510   2.393  0.00  0.00    +0.000 NA
ATOM      4  C17 UNK     0      -0.074  -0.412   0.237  0.00  0.00    +0.000 A 
ATOM      5  C18 UNK     0      -0.274  -1.114   1.404  0.00  0.00    +0.000 A 
ENDROOT
BRANCH   5   6
ATOM      6  C19 UNK     0      -1.154  -2.309   1.586  0.00  0.00    +0.000 C 
BRANCH   6   7
ATOM      7  N9  UNK     0      -2.560  -1.918   1.485  0.00  0.00    +0.000 N 
ATOM      8  H38 UNK     0      -3.082  -2.202   0.626  0.00  0.00    +0.000 HD
BRANCH   7   9
ATOM      9  C22 UNK     0      -3.239  -1.119   2.471  0.00  0.00    +0.000 C 
ATOM     10  S3  UNK     0      -2.686  -1.043   4.015  0.00  0.00    +0.000 S 
BRANCH   9  11
ATOM     11  N11 UNK     0      -4.505  -0.517   2.163  0.00  0.00    +0.000 N 
ATOM     12  H41 UNK     0      -5.196  -0.397   2.937  0.00  0.00    +0.000 HD
BRANCH  11  13
ATOM     13  C23 UNK     0      -4.873  -0.066   0.849  0.00  0.00    +0.000 A 
ATOM     14  C24 UNK     0      -3.908   0.416  -0.055  0.00  0.00    +0.000 A 
ATOM     15  C26 UNK     0      -4.291   0.871  -1.320  0.00  0.00    +0.000 A 
ATOM     16  C28 UNK     0      -5.639   0.863  -1.690  0.00  0.00    +0.000 A 
ATOM     17  I1  UNK     0      -6.215   1.552  -3.598  0.00  0.00    +0.000 I 
ATOM     18  C27 UNK     0      -6.606   0.406  -0.789  0.00  0.00    +0.000 A 
ATOM     19  C25 UNK     0      -6.226  -0.049   0.477  0.00  0.00    +0.000 A 
ENDBRANCH  11  13
ENDBRANCH   9  11
ENDBRANCH   7   9
ENDBRANCH   6   7
ENDBRANCH   5   6
BRANCH   1  20
ATOM     20  C12 UNK     0       1.289   1.603  -0.356  0.00  0.00    +0.000 C 
BRANCH  20  21
ATOM     21  C13 UNK     0       2.533   1.065  -1.005  0.00  0.00    +0.000 A 
ATOM     22  C14 UNK     0       3.775   1.188  -0.361  0.00  0.00    +0.000 A 
ATOM     23  C15 UNK     0       4.932   0.651  -0.943  0.00  0.00    +0.000 A 
ATOM     24  C20 UNK     0       4.841  -0.031  -2.164  0.00  0.00    +0.000 A 
ATOM     25  C21 UNK     0       3.605  -0.169  -2.800  0.00  0.00    +0.000 A 
ATOM     26  C16 UNK     0       2.453   0.372  -2.223  0.00  0.00    +0.000 A 
BRANCH  23  27
ATOM     27  S2  UNK     0       6.484   0.799  -0.125  0.00  0.00    +0.000 S 
ATOM     28  O5  UNK     0       6.524   2.081   0.659  0.00  0.00    +0.000 OA
ATOM     29  O4  UNK     0       7.594   0.818  -1.138  0.00  0.00    +0.000 OA
BRANCH  27  30
ATOM     30  N10 UNK     0       6.697  -0.539   0.947  0.00  0.00    +0.000 NA
ATOM     31  H40 UNK     0       7.650  -0.447   1.366  0.00  0.00    +0.000 HD
ATOM     32  H39 UNK     0       6.709  -1.402   0.358  0.00  0.00    +0.000 HD
ENDBRANCH  27  30
ENDBRANCH  23  27
ENDBRANCH  20  21
ENDBRANCH   1  20
TORSDOF 9
