REMARK  Name = C:\Users\Maximilian\Desktop\Conformers\converted_pdb\conformers_pdb\T5342126_conf_39.pdb
REMARK  9 active torsions:
REMARK  status: ('A' for Active; 'I' for Inactive)
REMARK    1  A    between atoms: N6_1  and  C12_20
REMARK    2  A    between atoms: C18_5  and  C19_6
REMARK    3  A    between atoms: C19_6  and  N9_7
REMARK    4  A    between atoms: N9_7  and  C22_9
REMARK    5  A    between atoms: C22_9  and  N11_11
REMARK    6  A    between atoms: N11_11  and  C23_13
REMARK    7  A    between atoms: C12_20  and  C13_21
REMARK    8  A    between atoms: C15_23  and  S2_27
REMARK    9  A    between atoms: S2_27  and  N10_30
REMARK                            x       y       z     vdW  Elec       q    Type
REMARK                         _______ _______ _______ _____ _____    ______ ____
ROOT
ATOM      1  N6  UNK     0      -1.051   0.667   1.107  0.00  0.00    +0.000 N 
ATOM      2  N7  UNK     0      -0.395  -0.062   1.996  0.00  0.00    +0.000 NA
ATOM      3  N8  UNK     0       0.455  -0.877   1.385  0.00  0.00    +0.000 NA
ATOM      4  C17 UNK     0      -0.641   0.314  -0.123  0.00  0.00    +0.000 A 
ATOM      5  C18 UNK     0       0.323  -0.652   0.062  0.00  0.00    +0.000 A 
ENDROOT
BRANCH   5   6
ATOM      6  C19 UNK     0       1.058  -1.402  -1.003  0.00  0.00    +0.000 C 
BRANCH   6   7
ATOM      7  N9  UNK     0       1.617  -0.478  -1.987  0.00  0.00    +0.000 N 
ATOM      8  H38 UNK     0       1.117  -0.377  -2.900  0.00  0.00    +0.000 HD
BRANCH   7   9
ATOM      9  C22 UNK     0       2.849   0.231  -1.790  0.00  0.00    +0.000 C 
ATOM     10  S3  UNK     0       3.379   1.238  -2.974  0.00  0.00    +0.000 S 
BRANCH   9  11
ATOM     11  N11 UNK     0       3.519   0.199  -0.517  0.00  0.00    +0.000 N 
ATOM     12  H41 UNK     0       2.934   0.137   0.346  0.00  0.00    +0.000 HD
BRANCH  11  13
ATOM     13  C23 UNK     0       4.943   0.311  -0.351  0.00  0.00    +0.000 A 
ATOM     14  C24 UNK     0       5.458   0.870   0.829  0.00  0.00    +0.000 A 
ATOM     15  C26 UNK     0       6.840   0.964   1.023  0.00  0.00    +0.000 A 
ATOM     16  C28 UNK     0       7.719   0.487   0.046  0.00  0.00    +0.000 A 
ATOM     17  I1  UNK     0       9.802   0.625   0.343  0.00  0.00    +0.000 I 
ATOM     18  C27 UNK     0       7.215  -0.092  -1.123  0.00  0.00    +0.000 A 
ATOM     19  C25 UNK     0       5.834  -0.187  -1.320  0.00  0.00    +0.000 A 
ENDBRANCH  11  13
ENDBRANCH   9  11
ENDBRANCH   7   9
ENDBRANCH   6   7
ENDBRANCH   5   6
BRANCH   1  20
ATOM     20  C12 UNK     0      -2.119   1.603   1.434  0.00  0.00    +0.000 C 
BRANCH  20  21
ATOM     21  C13 UNK     0      -3.440   0.886   1.438  0.00  0.00    +0.000 A 
ATOM     22  C14 UNK     0      -4.163   0.732   0.244  0.00  0.00    +0.000 A 
ATOM     23  C15 UNK     0      -5.372   0.023   0.233  0.00  0.00    +0.000 A 
ATOM     24  C20 UNK     0      -5.849  -0.552   1.419  0.00  0.00    +0.000 A 
ATOM     25  C21 UNK     0      -5.127  -0.412   2.607  0.00  0.00    +0.000 A 
ATOM     26  C16 UNK     0      -3.924   0.300   2.618  0.00  0.00    +0.000 A 
BRANCH  23  27
ATOM     27  S2  UNK     0      -6.259  -0.181  -1.274  0.00  0.00    +0.000 S 
ATOM     28  O5  UNK     0      -6.114   1.054  -2.119  0.00  0.00    +0.000 OA
ATOM     29  O4  UNK     0      -7.718  -0.397  -0.984  0.00  0.00    +0.000 OA
BRANCH  27  30
ATOM     30  N10 UNK     0      -5.635  -1.545  -2.133  0.00  0.00    +0.000 NA
ATOM     31  H40 UNK     0      -5.717  -2.370  -1.497  0.00  0.00    +0.000 HD
ATOM     32  H39 UNK     0      -4.614  -1.375  -2.276  0.00  0.00    +0.000 HD
ENDBRANCH  27  30
ENDBRANCH  23  27
ENDBRANCH  20  21
ENDBRANCH   1  20
TORSDOF 9
