REMARK  Name = C:\Users\Maximilian\Desktop\Conformers\converted_pdb\conformers_pdb\T5342126_conf_65.pdb
REMARK  9 active torsions:
REMARK  status: ('A' for Active; 'I' for Inactive)
REMARK    1  A    between atoms: N6_1  and  C12_20
REMARK    2  A    between atoms: C18_5  and  C19_6
REMARK    3  A    between atoms: C19_6  and  N9_7
REMARK    4  A    between atoms: N9_7  and  C22_9
REMARK    5  A    between atoms: C22_9  and  N11_11
REMARK    6  A    between atoms: N11_11  and  C23_13
REMARK    7  A    between atoms: C12_20  and  C13_21
REMARK    8  A    between atoms: C15_23  and  S2_27
REMARK    9  A    between atoms: S2_27  and  N10_30
REMARK                            x       y       z     vdW  Elec       q    Type
REMARK                         _______ _______ _______ _____ _____    ______ ____
ROOT
ATOM      1  N6  UNK     0      -1.427   0.574  -0.293  0.00  0.00    +0.000 N 
ATOM      2  N7  UNK     0      -1.201   1.239   0.829  0.00  0.00    +0.000 NA
ATOM      3  N8  UNK     0      -0.275   0.622   1.550  0.00  0.00    +0.000 NA
ATOM      4  C17 UNK     0      -0.647  -0.519  -0.309  0.00  0.00    +0.000 A 
ATOM      5  C18 UNK     0       0.087  -0.476   0.856  0.00  0.00    +0.000 A 
ENDROOT
BRANCH   5   6
ATOM      6  C19 UNK     0       1.098  -1.477   1.316  0.00  0.00    +0.000 C 
BRANCH   6   7
ATOM      7  N9  UNK     0       2.388  -0.826   1.544  0.00  0.00    +0.000 N 
ATOM      8  H38 UNK     0       2.688  -0.677   2.533  0.00  0.00    +0.000 HD
BRANCH   7   9
ATOM      9  C22 UNK     0       3.284  -0.417   0.495  0.00  0.00    +0.000 C 
ATOM     10  S3  UNK     0       2.861  -0.590  -1.087  0.00  0.00    +0.000 S 
BRANCH   9  11
ATOM     11  N11 UNK     0       4.478   0.301   0.849  0.00  0.00    +0.000 N 
ATOM     12  H41 UNK     0       4.476   0.824   1.754  0.00  0.00    +0.000 HD
BRANCH  11  13
ATOM     13  C23 UNK     0       5.659   0.376   0.033  0.00  0.00    +0.000 A 
ATOM     14  C24 UNK     0       6.439   1.543   0.054  0.00  0.00    +0.000 A 
ATOM     15  C26 UNK     0       7.606   1.627  -0.710  0.00  0.00    +0.000 A 
ATOM     16  C28 UNK     0       8.014   0.541  -1.490  0.00  0.00    +0.000 A 
ATOM     17  I1  UNK     0       9.777   0.668  -2.640  0.00  0.00    +0.000 I 
ATOM     18  C27 UNK     0       7.257  -0.635  -1.498  0.00  0.00    +0.000 A 
ATOM     19  C25 UNK     0       6.089  -0.722  -0.734  0.00  0.00    +0.000 A 
ENDBRANCH  11  13
ENDBRANCH   9  11
ENDBRANCH   7   9
ENDBRANCH   6   7
ENDBRANCH   5   6
BRANCH   1  20
ATOM     20  C12 UNK     0      -2.437   0.939  -1.279  0.00  0.00    +0.000 C 
BRANCH  20  21
ATOM     21  C13 UNK     0      -3.735   0.254  -0.957  0.00  0.00    +0.000 A 
ATOM     22  C14 UNK     0      -4.634   0.836  -0.048  0.00  0.00    +0.000 A 
ATOM     23  C15 UNK     0      -5.826   0.179   0.288  0.00  0.00    +0.000 A 
ATOM     24  C20 UNK     0      -6.108  -1.075  -0.270  0.00  0.00    +0.000 A 
ATOM     25  C21 UNK     0      -5.210  -1.664  -1.163  0.00  0.00    +0.000 A 
ATOM     26  C16 UNK     0      -4.025  -1.007  -1.503  0.00  0.00    +0.000 A 
BRANCH  23  27
ATOM     27  S2  UNK     0      -6.940   0.911   1.439  0.00  0.00    +0.000 S 
ATOM     28  O5  UNK     0      -8.337   0.418   1.182  0.00  0.00    +0.000 OA
ATOM     29  O4  UNK     0      -6.921   2.406   1.283  0.00  0.00    +0.000 OA
BRANCH  27  30
ATOM     30  N10 UNK     0      -6.469   0.492   3.048  0.00  0.00    +0.000 NA
ATOM     31  H40 UNK     0      -6.446  -0.551   3.097  0.00  0.00    +0.000 HD
ATOM     32  H39 UNK     0      -5.485   0.820   3.173  0.00  0.00    +0.000 HD
ENDBRANCH  27  30
ENDBRANCH  23  27
ENDBRANCH  20  21
ENDBRANCH   1  20
TORSDOF 9
