REMARK  Name = C:\Users\Maximilian\Desktop\Conformers\converted_pdb\conformers_pdb\T5342126_conf_74.pdb
REMARK  9 active torsions:
REMARK  status: ('A' for Active; 'I' for Inactive)
REMARK    1  A    between atoms: N6_1  and  C12_20
REMARK    2  A    between atoms: C18_5  and  C19_6
REMARK    3  A    between atoms: C19_6  and  N9_7
REMARK    4  A    between atoms: N9_7  and  C22_9
REMARK    5  A    between atoms: C22_9  and  N11_11
REMARK    6  A    between atoms: N11_11  and  C23_13
REMARK    7  A    between atoms: C12_20  and  C13_21
REMARK    8  A    between atoms: C15_23  and  S2_27
REMARK    9  A    between atoms: S2_27  and  N10_30
REMARK                            x       y       z     vdW  Elec       q    Type
REMARK                         _______ _______ _______ _____ _____    ______ ____
ROOT
ATOM      1  N6  UNK     0      -1.401  -2.249  -0.615  0.00  0.00    +0.000 N 
ATOM      2  N7  UNK     0      -0.382  -2.209  -1.459  0.00  0.00    +0.000 NA
ATOM      3  N8  UNK     0       0.650  -2.878  -0.966  0.00  0.00    +0.000 NA
ATOM      4  C17 UNK     0      -1.032  -2.952   0.469  0.00  0.00    +0.000 A 
ATOM      5  C18 UNK     0       0.263  -3.355   0.235  0.00  0.00    +0.000 A 
ENDROOT
BRANCH   5   6
ATOM      6  C19 UNK     0       1.164  -4.048   1.208  0.00  0.00    +0.000 C 
BRANCH   6   7
ATOM      7  N9  UNK     0       1.449  -3.168   2.339  0.00  0.00    +0.000 N 
ATOM      8  H38 UNK     0       1.051  -3.418   3.273  0.00  0.00    +0.000 HD
BRANCH   7   9
ATOM      9  C22 UNK     0       2.113  -1.907   2.177  0.00  0.00    +0.000 C 
ATOM     10  S3  UNK     0       2.098  -0.823   3.406  0.00  0.00    +0.000 S 
BRANCH   9  11
ATOM     11  N11 UNK     0       2.899  -1.650   1.007  0.00  0.00    +0.000 N 
ATOM     12  H41 UNK     0       3.567  -2.393   0.701  0.00  0.00    +0.000 HD
BRANCH  11  13
ATOM     13  C23 UNK     0       2.763  -0.473   0.192  0.00  0.00    +0.000 A 
ATOM     14  C24 UNK     0       1.612   0.337   0.251  0.00  0.00    +0.000 A 
ATOM     15  C26 UNK     0       1.496   1.455  -0.580  0.00  0.00    +0.000 A 
ATOM     16  C28 UNK     0       2.514   1.769  -1.484  0.00  0.00    +0.000 A 
ATOM     17  I1  UNK     0       2.329   3.444  -2.750  0.00  0.00    +0.000 I 
ATOM     18  C27 UNK     0       3.648   0.957  -1.564  0.00  0.00    +0.000 A 
ATOM     19  C25 UNK     0       3.771  -0.160  -0.733  0.00  0.00    +0.000 A 
ENDBRANCH  11  13
ENDBRANCH   9  11
ENDBRANCH   7   9
ENDBRANCH   6   7
ENDBRANCH   5   6
BRANCH   1  20
ATOM     20  C12 UNK     0      -2.650  -1.519  -0.792  0.00  0.00    +0.000 C 
BRANCH  20  21
ATOM     21  C13 UNK     0      -2.507  -0.118  -0.258  0.00  0.00    +0.000 A 
ATOM     22  C14 UNK     0      -2.368   0.972  -1.134  0.00  0.00    +0.000 A 
ATOM     23  C15 UNK     0      -2.227   2.274  -0.629  0.00  0.00    +0.000 A 
ATOM     24  C20 UNK     0      -2.213   2.481   0.756  0.00  0.00    +0.000 A 
ATOM     25  C21 UNK     0      -2.333   1.399   1.630  0.00  0.00    +0.000 A 
ATOM     26  C16 UNK     0      -2.479   0.104   1.128  0.00  0.00    +0.000 A 
BRANCH  23  27
ATOM     27  S2  UNK     0      -2.080   3.650  -1.720  0.00  0.00    +0.000 S 
ATOM     28  O5  UNK     0      -3.343   4.462  -1.669  0.00  0.00    +0.000 OA
ATOM     29  O4  UNK     0      -1.857   3.172  -3.128  0.00  0.00    +0.000 OA
BRANCH  27  30
ATOM     30  N10 UNK     0      -0.736   4.631  -1.249  0.00  0.00    +0.000 NA
ATOM     31  H40 UNK     0      -0.968   5.057  -0.324  0.00  0.00    +0.000 HD
ATOM     32  H39 UNK     0      -0.677   5.418  -1.935  0.00  0.00    +0.000 HD
ENDBRANCH  27  30
ENDBRANCH  23  27
ENDBRANCH  20  21
ENDBRANCH   1  20
TORSDOF 9
