REMARK  Name = C:\Users\Maximilian\Desktop\Conformers\converted_pdb\conformers_pdb\T5342126_conf_8.pdb
REMARK  9 active torsions:
REMARK  status: ('A' for Active; 'I' for Inactive)
REMARK    1  A    between atoms: N6_1  and  C12_20
REMARK    2  A    between atoms: C18_5  and  C19_6
REMARK    3  A    between atoms: C19_6  and  N9_7
REMARK    4  A    between atoms: N9_7  and  C22_9
REMARK    5  A    between atoms: C22_9  and  N11_11
REMARK    6  A    between atoms: N11_11  and  C23_13
REMARK    7  A    between atoms: C12_20  and  C13_21
REMARK    8  A    between atoms: C15_23  and  S2_27
REMARK    9  A    between atoms: S2_27  and  N10_30
REMARK                            x       y       z     vdW  Elec       q    Type
REMARK                         _______ _______ _______ _____ _____    ______ ____
ROOT
ATOM      1  N6  UNK     0      -1.585   1.711   0.517  0.00  0.00    +0.000 N 
ATOM      2  N7  UNK     0      -1.641   1.581   1.834  0.00  0.00    +0.000 NA
ATOM      3  N8  UNK     0      -0.447   1.264   2.315  0.00  0.00    +0.000 NA
ATOM      4  C17 UNK     0      -0.329   1.457   0.114  0.00  0.00    +0.000 A 
ATOM      5  C18 UNK     0       0.383   1.170   1.257  0.00  0.00    +0.000 A 
ENDROOT
BRANCH   5   6
ATOM      6  C19 UNK     0       1.848   0.885   1.347  0.00  0.00    +0.000 C 
BRANCH   6   7
ATOM      7  N9  UNK     0       2.613   2.132   1.400  0.00  0.00    +0.000 N 
ATOM      8  H38 UNK     0       2.107   3.046   1.342  0.00  0.00    +0.000 HD
BRANCH   7   9
ATOM      9  C22 UNK     0       4.008   2.155   1.737  0.00  0.00    +0.000 C 
ATOM     10  S3  UNK     0       4.642   3.496   2.428  0.00  0.00    +0.000 S 
BRANCH   9  11
ATOM     11  N11 UNK     0       4.829   0.986   1.603  0.00  0.00    +0.000 N 
ATOM     12  H41 UNK     0       5.475   0.751   2.390  0.00  0.00    +0.000 HD
BRANCH  11  13
ATOM     13  C23 UNK     0       4.901   0.199   0.402  0.00  0.00    +0.000 A 
ATOM     14  C24 UNK     0       5.400  -1.111   0.465  0.00  0.00    +0.000 A 
ATOM     15  C26 UNK     0       5.489  -1.892  -0.691  0.00  0.00    +0.000 A 
ATOM     16  C28 UNK     0       5.091  -1.366  -1.924  0.00  0.00    +0.000 A 
ATOM     17  I1  UNK     0       5.223  -2.546  -3.668  0.00  0.00    +0.000 I 
ATOM     18  C27 UNK     0       4.610  -0.056  -2.001  0.00  0.00    +0.000 A 
ATOM     19  C25 UNK     0       4.520   0.728  -0.847  0.00  0.00    +0.000 A 
ENDBRANCH  11  13
ENDBRANCH   9  11
ENDBRANCH   7   9
ENDBRANCH   6   7
ENDBRANCH   5   6
BRANCH   1  20
ATOM     20  C12 UNK     0      -2.733   1.996  -0.335  0.00  0.00    +0.000 C 
BRANCH  20  21
ATOM     21  C13 UNK     0      -3.330   0.710  -0.833  0.00  0.00    +0.000 A 
ATOM     22  C14 UNK     0      -4.267   0.017  -0.049  0.00  0.00    +0.000 A 
ATOM     23  C15 UNK     0      -4.794  -1.205  -0.491  0.00  0.00    +0.000 A 
ATOM     24  C20 UNK     0      -4.366  -1.744  -1.711  0.00  0.00    +0.000 A 
ATOM     25  C21 UNK     0      -3.422  -1.065  -2.487  0.00  0.00    +0.000 A 
ATOM     26  C16 UNK     0      -2.902   0.155  -2.049  0.00  0.00    +0.000 A 
BRANCH  23  27
ATOM     27  S2  UNK     0      -5.958  -2.076   0.502  0.00  0.00    +0.000 S 
ATOM     28  O5  UNK     0      -6.869  -2.888  -0.375  0.00  0.00    +0.000 OA
ATOM     29  O4  UNK     0      -6.790  -1.100   1.287  0.00  0.00    +0.000 OA
BRANCH  27  30
ATOM     30  N10 UNK     0      -5.114  -3.125   1.587  0.00  0.00    +0.000 NA
ATOM     31  H40 UNK     0      -5.834  -3.581   2.193  0.00  0.00    +0.000 HD
ATOM     32  H39 UNK     0      -4.536  -2.518   2.209  0.00  0.00    +0.000 HD
ENDBRANCH  27  30
ENDBRANCH  23  27
ENDBRANCH  20  21
ENDBRANCH   1  20
TORSDOF 9
