REMARK  Name = C:\Users\Maximilian\Desktop\Conformers\converted_pdb\conformers_pdb\T5342126_conf_73.pdb
REMARK  9 active torsions:
REMARK  status: ('A' for Active; 'I' for Inactive)
REMARK    1  A    between atoms: N6_1  and  C12_20
REMARK    2  A    between atoms: C18_5  and  C19_6
REMARK    3  A    between atoms: C19_6  and  N9_7
REMARK    4  A    between atoms: N9_7  and  C22_9
REMARK    5  A    between atoms: C22_9  and  N11_11
REMARK    6  A    between atoms: N11_11  and  C23_13
REMARK    7  A    between atoms: C12_20  and  C13_21
REMARK    8  A    between atoms: C15_23  and  S2_27
REMARK    9  A    between atoms: S2_27  and  N10_30
REMARK                            x       y       z     vdW  Elec       q    Type
REMARK                         _______ _______ _______ _____ _____    ______ ____
ROOT
ATOM      1  N6  UNK     0       1.857  -0.322   1.112  0.00  0.00    +0.000 N 
ATOM      2  N7  UNK     0       1.721   0.984   1.278  0.00  0.00    +0.000 NA
ATOM      3  N8  UNK     0       0.674   1.428   0.596  0.00  0.00    +0.000 NA
ATOM      4  C17 UNK     0       0.888  -0.754   0.287  0.00  0.00    +0.000 A 
ATOM      5  C18 UNK     0       0.147   0.361  -0.039  0.00  0.00    +0.000 A 
ENDROOT
BRANCH   5   6
ATOM      6  C19 UNK     0      -1.090   0.397  -0.880  0.00  0.00    +0.000 C 
BRANCH   6   7
ATOM      7  N9  UNK     0      -2.272   0.091  -0.073  0.00  0.00    +0.000 N 
ATOM      8  H38 UNK     0      -2.158  -0.112   0.947  0.00  0.00    +0.000 HD
BRANCH   7   9
ATOM      9  C22 UNK     0      -3.606   0.091  -0.608  0.00  0.00    +0.000 C 
ATOM     10  S3  UNK     0      -3.858   0.289  -2.223  0.00  0.00    +0.000 S 
BRANCH   9  11
ATOM     11  N11 UNK     0      -4.697  -0.271   0.255  0.00  0.00    +0.000 N 
ATOM     12  H41 UNK     0      -4.480  -0.870   1.083  0.00  0.00    +0.000 HD
BRANCH  11  13
ATOM     13  C23 UNK     0      -6.068   0.108   0.042  0.00  0.00    +0.000 A 
ATOM     14  C24 UNK     0      -7.094  -0.758   0.448  0.00  0.00    +0.000 A 
ATOM     15  C26 UNK     0      -8.434  -0.397   0.276  0.00  0.00    +0.000 A 
ATOM     16  C28 UNK     0      -8.760   0.840  -0.287  0.00  0.00    +0.000 A 
ATOM     17  I1  UNK     0     -10.781   1.385  -0.543  0.00  0.00    +0.000 I 
ATOM     18  C27 UNK     0      -7.744   1.720  -0.672  0.00  0.00    +0.000 A 
ATOM     19  C25 UNK     0      -6.403   1.361  -0.502  0.00  0.00    +0.000 A 
ENDBRANCH  11  13
ENDBRANCH   9  11
ENDBRANCH   7   9
ENDBRANCH   6   7
ENDBRANCH   5   6
BRANCH   1  20
ATOM     20  C12 UNK     0       2.941  -1.118   1.674  0.00  0.00    +0.000 C 
BRANCH  20  21
ATOM     21  C13 UNK     0       4.078  -1.196   0.694  0.00  0.00    +0.000 A 
ATOM     22  C14 UNK     0       5.043  -0.177   0.649  0.00  0.00    +0.000 A 
ATOM     23  C15 UNK     0       6.081  -0.226  -0.292  0.00  0.00    +0.000 A 
ATOM     24  C20 UNK     0       6.140  -1.286  -1.206  0.00  0.00    +0.000 A 
ATOM     25  C21 UNK     0       5.173  -2.294  -1.175  0.00  0.00    +0.000 A 
ATOM     26  C16 UNK     0       4.142  -2.249  -0.233  0.00  0.00    +0.000 A 
BRANCH  23  27
ATOM     27  S2  UNK     0       7.281   1.062  -0.349  0.00  0.00    +0.000 S 
ATOM     28  O5  UNK     0       8.573   0.531  -0.903  0.00  0.00    +0.000 OA
ATOM     29  O4  UNK     0       7.530   1.585   1.039  0.00  0.00    +0.000 OA
BRANCH  27  30
ATOM     30  N10 UNK     0       6.702   2.341  -1.358  0.00  0.00    +0.000 NA
ATOM     31  H40 UNK     0       7.410   3.108  -1.314  0.00  0.00    +0.000 HD
ATOM     32  H39 UNK     0       5.830   2.708  -0.915  0.00  0.00    +0.000 HD
ENDBRANCH  27  30
ENDBRANCH  23  27
ENDBRANCH  20  21
ENDBRANCH   1  20
TORSDOF 9
