REMARK  Name = C:\Users\Maximilian\Desktop\Conformers\converted_pdb\conformers_pdb\T5342126_conf_52.pdb
REMARK  9 active torsions:
REMARK  status: ('A' for Active; 'I' for Inactive)
REMARK    1  A    between atoms: N6_1  and  C12_20
REMARK    2  A    between atoms: C18_5  and  C19_6
REMARK    3  A    between atoms: C19_6  and  N9_7
REMARK    4  A    between atoms: N9_7  and  C22_9
REMARK    5  A    between atoms: C22_9  and  N11_11
REMARK    6  A    between atoms: N11_11  and  C23_13
REMARK    7  A    between atoms: C12_20  and  C13_21
REMARK    8  A    between atoms: C15_23  and  S2_27
REMARK    9  A    between atoms: S2_27  and  N10_30
REMARK                            x       y       z     vdW  Elec       q    Type
REMARK                         _______ _______ _______ _____ _____    ______ ____
ROOT
ATOM      1  N6  UNK     0       1.530   0.658   0.754  0.00  0.00    +0.000 N 
ATOM      2  N7  UNK     0       1.101   1.212  -0.369  0.00  0.00    +0.000 NA
ATOM      3  N8  UNK     0      -0.069   0.695  -0.719  0.00  0.00    +0.000 NA
ATOM      4  C17 UNK     0       0.634  -0.261   1.150  0.00  0.00    +0.000 A 
ATOM      5  C18 UNK     0      -0.379  -0.225   0.218  0.00  0.00    +0.000 A 
ENDROOT
BRANCH   5   6
ATOM      6  C19 UNK     0      -1.615  -1.067   0.203  0.00  0.00    +0.000 C 
BRANCH   6   7
ATOM      7  N9  UNK     0      -2.806  -0.219   0.217  0.00  0.00    +0.000 N 
ATOM      8  H38 UNK     0      -3.277  -0.039  -0.697  0.00  0.00    +0.000 HD
BRANCH   7   9
ATOM      9  C22 UNK     0      -3.342   0.393   1.406  0.00  0.00    +0.000 C 
ATOM     10  S3  UNK     0      -2.482   0.416   2.805  0.00  0.00    +0.000 S 
BRANCH   9  11
ATOM     11  N11 UNK     0      -4.577   1.124   1.349  0.00  0.00    +0.000 N 
ATOM     12  H41 UNK     0      -4.700   1.931   2.002  0.00  0.00    +0.000 HD
BRANCH  11  13
ATOM     13  C23 UNK     0      -5.652   0.816   0.447  0.00  0.00    +0.000 A 
ATOM     14  C24 UNK     0      -5.900  -0.503   0.025  0.00  0.00    +0.000 A 
ATOM     15  C26 UNK     0      -6.968  -0.781  -0.833  0.00  0.00    +0.000 A 
ATOM     16  C28 UNK     0      -7.808   0.250  -1.265  0.00  0.00    +0.000 A 
ATOM     17  I1  UNK     0      -9.420  -0.172  -2.557  0.00  0.00    +0.000 I 
ATOM     18  C27 UNK     0      -7.582   1.560  -0.832  0.00  0.00    +0.000 A 
ATOM     19  C25 UNK     0      -6.514   1.841   0.026  0.00  0.00    +0.000 A 
ENDBRANCH  11  13
ENDBRANCH   9  11
ENDBRANCH   7   9
ENDBRANCH   6   7
ENDBRANCH   5   6
BRANCH   1  20
ATOM     20  C12 UNK     0       2.816   0.947   1.378  0.00  0.00    +0.000 C 
BRANCH  20  21
ATOM     21  C13 UNK     0       3.864   0.014   0.841  0.00  0.00    +0.000 A 
ATOM     22  C14 UNK     0       4.546   0.325  -0.347  0.00  0.00    +0.000 A 
ATOM     23  C15 UNK     0       5.491  -0.564  -0.876  0.00  0.00    +0.000 A 
ATOM     24  C20 UNK     0       5.757  -1.769  -0.212  0.00  0.00    +0.000 A 
ATOM     25  C21 UNK     0       5.070  -2.091   0.961  0.00  0.00    +0.000 A 
ATOM     26  C16 UNK     0       4.121  -1.208   1.483  0.00  0.00    +0.000 A 
BRANCH  23  27
ATOM     27  S2  UNK     0       6.357  -0.157  -2.355  0.00  0.00    +0.000 S 
ATOM     28  O5  UNK     0       5.475   0.669  -3.249  0.00  0.00    +0.000 OA
ATOM     29  O4  UNK     0       6.738  -1.414  -3.085  0.00  0.00    +0.000 OA
BRANCH  27  30
ATOM     30  N10 UNK     0       7.783   0.737  -1.964  0.00  0.00    +0.000 NA
ATOM     31  H40 UNK     0       8.344   0.146  -1.311  0.00  0.00    +0.000 HD
ATOM     32  H39 UNK     0       7.478   1.577  -1.423  0.00  0.00    +0.000 HD
ENDBRANCH  27  30
ENDBRANCH  23  27
ENDBRANCH  20  21
ENDBRANCH   1  20
TORSDOF 9
