REMARK  Name = C:\Users\Maximilian\Desktop\Conformers\converted_pdb\conformers_pdb\T5342126_conf_54.pdb
REMARK  9 active torsions:
REMARK  status: ('A' for Active; 'I' for Inactive)
REMARK    1  A    between atoms: N6_1  and  C12_20
REMARK    2  A    between atoms: C18_5  and  C19_6
REMARK    3  A    between atoms: C19_6  and  N9_7
REMARK    4  A    between atoms: N9_7  and  C22_9
REMARK    5  A    between atoms: C22_9  and  N11_11
REMARK    6  A    between atoms: N11_11  and  C23_13
REMARK    7  A    between atoms: C12_20  and  C13_21
REMARK    8  A    between atoms: C15_23  and  S2_27
REMARK    9  A    between atoms: S2_27  and  N10_30
REMARK                            x       y       z     vdW  Elec       q    Type
REMARK                         _______ _______ _______ _____ _____    ______ ____
ROOT
ATOM      1  N6  UNK     0      -1.933  -2.517   0.274  0.00  0.00    +0.000 N 
ATOM      2  N7  UNK     0      -1.251  -3.130  -0.682  0.00  0.00    +0.000 NA
ATOM      3  N8  UNK     0       0.033  -2.811  -0.608  0.00  0.00    +0.000 NA
ATOM      4  C17 UNK     0      -1.083  -1.758   0.986  0.00  0.00    +0.000 A 
ATOM      5  C18 UNK     0       0.161  -1.965   0.435  0.00  0.00    +0.000 A 
ENDROOT
BRANCH   5   6
ATOM      6  C19 UNK     0       1.432  -1.273   0.816  0.00  0.00    +0.000 C 
BRANCH   6   7
ATOM      7  N9  UNK     0       1.538   0.018   0.138  0.00  0.00    +0.000 N 
ATOM      8  H38 UNK     0       0.738   0.361  -0.444  0.00  0.00    +0.000 HD
BRANCH   7   9
ATOM      9  C22 UNK     0       2.731   0.813   0.191  0.00  0.00    +0.000 C 
ATOM     10  S3  UNK     0       2.769   2.239  -0.621  0.00  0.00    +0.000 S 
BRANCH   9  11
ATOM     11  N11 UNK     0       3.806   0.457   1.079  0.00  0.00    +0.000 N 
ATOM     12  H41 UNK     0       3.563  -0.009   1.982  0.00  0.00    +0.000 HD
BRANCH  11  13
ATOM     13  C23 UNK     0       5.191   0.753   0.829  0.00  0.00    +0.000 A 
ATOM     14  C24 UNK     0       5.708   0.786  -0.479  0.00  0.00    +0.000 A 
ATOM     15  C26 UNK     0       7.064   1.050  -0.696  0.00  0.00    +0.000 A 
ATOM     16  C28 UNK     0       7.918   1.268   0.389  0.00  0.00    +0.000 A 
ATOM     17  I1  UNK     0       9.963   1.662   0.060  0.00  0.00    +0.000 I 
ATOM     18  C27 UNK     0       7.416   1.214   1.693  0.00  0.00    +0.000 A 
ATOM     19  C25 UNK     0       6.061   0.950   1.913  0.00  0.00    +0.000 A 
ENDBRANCH  11  13
ENDBRANCH   9  11
ENDBRANCH   7   9
ENDBRANCH   6   7
ENDBRANCH   5   6
BRANCH   1  20
ATOM     20  C12 UNK     0      -3.383  -2.568   0.416  0.00  0.00    +0.000 C 
BRANCH  20  21
ATOM     21  C13 UNK     0      -4.012  -1.470  -0.394  0.00  0.00    +0.000 A 
ATOM     22  C14 UNK     0      -4.160  -0.185   0.153  0.00  0.00    +0.000 A 
ATOM     23  C15 UNK     0      -4.699   0.856  -0.615  0.00  0.00    +0.000 A 
ATOM     24  C20 UNK     0      -5.097   0.608  -1.936  0.00  0.00    +0.000 A 
ATOM     25  C21 UNK     0      -4.938  -0.665  -2.490  0.00  0.00    +0.000 A 
ATOM     26  C16 UNK     0      -4.391  -1.699  -1.726  0.00  0.00    +0.000 A 
BRANCH  23  27
ATOM     27  S2  UNK     0      -4.896   2.459   0.085  0.00  0.00    +0.000 S 
ATOM     28  O5  UNK     0      -4.846   3.500  -0.998  0.00  0.00    +0.000 OA
ATOM     29  O4  UNK     0      -3.784   2.726   1.061  0.00  0.00    +0.000 OA
BRANCH  27  30
ATOM     30  N10 UNK     0      -6.416   2.553   0.903  0.00  0.00    +0.000 NA
ATOM     31  H40 UNK     0      -7.154   2.317   0.202  0.00  0.00    +0.000 HD
ATOM     32  H39 UNK     0      -6.425   1.791   1.618  0.00  0.00    +0.000 HD
ENDBRANCH  27  30
ENDBRANCH  23  27
ENDBRANCH  20  21
ENDBRANCH   1  20
TORSDOF 9
