REMARK  Name = C:\Users\Maximilian\Desktop\Conformers\converted_pdb\conformers_pdb\T5342126_conf_53.pdb
REMARK  9 active torsions:
REMARK  status: ('A' for Active; 'I' for Inactive)
REMARK    1  A    between atoms: N6_1  and  C12_20
REMARK    2  A    between atoms: C18_5  and  C19_6
REMARK    3  A    between atoms: C19_6  and  N9_7
REMARK    4  A    between atoms: N9_7  and  C22_9
REMARK    5  A    between atoms: C22_9  and  N11_11
REMARK    6  A    between atoms: N11_11  and  C23_13
REMARK    7  A    between atoms: C12_20  and  C13_21
REMARK    8  A    between atoms: C15_23  and  S2_27
REMARK    9  A    between atoms: S2_27  and  N10_30
REMARK                            x       y       z     vdW  Elec       q    Type
REMARK                         _______ _______ _______ _____ _____    ______ ____
ROOT
ATOM      1  N6  UNK     0      -0.537   1.211  -0.179  0.00  0.00    +0.000 N 
ATOM      2  N7  UNK     0       0.385   1.401   0.752  0.00  0.00    +0.000 NA
ATOM      3  N8  UNK     0       1.256   0.402   0.746  0.00  0.00    +0.000 NA
ATOM      4  C17 UNK     0      -0.284   0.049  -0.804  0.00  0.00    +0.000 A 
ATOM      5  C18 UNK     0       0.856  -0.453  -0.217  0.00  0.00    +0.000 A 
ENDROOT
BRANCH   5   6
ATOM      6  C19 UNK     0       1.560  -1.725  -0.572  0.00  0.00    +0.000 C 
BRANCH   6   7
ATOM      7  N9  UNK     0       2.019  -1.694  -1.961  0.00  0.00    +0.000 N 
ATOM      8  H38 UNK     0       1.600  -2.385  -2.623  0.00  0.00    +0.000 HD
BRANCH   7   9
ATOM      9  C22 UNK     0       2.873  -0.668  -2.495  0.00  0.00    +0.000 C 
ATOM     10  S3  UNK     0       2.839  -0.360  -4.102  0.00  0.00    +0.000 S 
BRANCH   9  11
ATOM     11  N11 UNK     0       3.623   0.203  -1.638  0.00  0.00    +0.000 N 
ATOM     12  H41 UNK     0       3.589   1.229  -1.834  0.00  0.00    +0.000 HD
BRANCH  11  13
ATOM     13  C23 UNK     0       4.498  -0.264  -0.597  0.00  0.00    +0.000 A 
ATOM     14  C24 UNK     0       5.030  -1.567  -0.617  0.00  0.00    +0.000 A 
ATOM     15  C26 UNK     0       5.887  -1.994   0.402  0.00  0.00    +0.000 A 
ATOM     16  C28 UNK     0       6.228  -1.124   1.442  0.00  0.00    +0.000 A 
ATOM     17  I1  UNK     0       7.520  -1.771   2.979  0.00  0.00    +0.000 I 
ATOM     18  C27 UNK     0       5.717   0.177   1.459  0.00  0.00    +0.000 A 
ATOM     19  C25 UNK     0       4.860   0.607   0.441  0.00  0.00    +0.000 A 
ENDBRANCH  11  13
ENDBRANCH   9  11
ENDBRANCH   7   9
ENDBRANCH   6   7
ENDBRANCH   5   6
BRANCH   1  20
ATOM     20  C12 UNK     0      -1.682   2.087  -0.397  0.00  0.00    +0.000 C 
BRANCH  20  21
ATOM     21  C13 UNK     0      -2.843   1.626   0.440  0.00  0.00    +0.000 A 
ATOM     22  C14 UNK     0      -3.729   0.655  -0.054  0.00  0.00    +0.000 A 
ATOM     23  C15 UNK     0      -4.784   0.188   0.741  0.00  0.00    +0.000 A 
ATOM     24  C20 UNK     0      -4.955   0.697   2.036  0.00  0.00    +0.000 A 
ATOM     25  C21 UNK     0      -4.066   1.651   2.537  0.00  0.00    +0.000 A 
ATOM     26  C16 UNK     0      -3.009   2.110   1.747  0.00  0.00    +0.000 A 
BRANCH  23  27
ATOM     27  S2  UNK     0      -5.900  -1.015   0.104  0.00  0.00    +0.000 S 
ATOM     28  O5  UNK     0      -6.529  -1.780   1.234  0.00  0.00    +0.000 OA
ATOM     29  O4  UNK     0      -5.155  -1.980  -0.776  0.00  0.00    +0.000 OA
BRANCH  27  30
ATOM     30  N10 UNK     0      -7.135  -0.225  -0.813  0.00  0.00    +0.000 NA
ATOM     31  H40 UNK     0      -6.661   0.259  -1.609  0.00  0.00    +0.000 HD
ATOM     32  H39 UNK     0      -7.733  -0.974  -1.228  0.00  0.00    +0.000 HD
ENDBRANCH  27  30
ENDBRANCH  23  27
ENDBRANCH  20  21
ENDBRANCH   1  20
TORSDOF 9
