REMARK  Name = C:\Users\Maximilian\Desktop\Conformers\converted_pdb\conformers_pdb\T5342126_conf_71.pdb
REMARK  9 active torsions:
REMARK  status: ('A' for Active; 'I' for Inactive)
REMARK    1  A    between atoms: N6_1  and  C12_20
REMARK    2  A    between atoms: C18_5  and  C19_6
REMARK    3  A    between atoms: C19_6  and  N9_7
REMARK    4  A    between atoms: N9_7  and  C22_9
REMARK    5  A    between atoms: C22_9  and  N11_11
REMARK    6  A    between atoms: N11_11  and  C23_13
REMARK    7  A    between atoms: C12_20  and  C13_21
REMARK    8  A    between atoms: C15_23  and  S2_27
REMARK    9  A    between atoms: S2_27  and  N10_30
REMARK                            x       y       z     vdW  Elec       q    Type
REMARK                         _______ _______ _______ _____ _____    ______ ____
ROOT
ATOM      1  N6  UNK     0       2.204  -1.484   2.151  0.00  0.00    +0.000 N 
ATOM      2  N7  UNK     0       2.322  -0.350   2.824  0.00  0.00    +0.000 NA
ATOM      3  N8  UNK     0       1.124   0.139   3.112  0.00  0.00    +0.000 NA
ATOM      4  C17 UNK     0       0.899  -1.744   1.973  0.00  0.00    +0.000 A 
ATOM      5  C18 UNK     0       0.221  -0.722   2.601  0.00  0.00    +0.000 A 
ENDROOT
BRANCH   5   6
ATOM      6  C19 UNK     0      -1.259  -0.506   2.608  0.00  0.00    +0.000 C 
BRANCH   6   7
ATOM      7  N9  UNK     0      -1.682   0.206   1.400  0.00  0.00    +0.000 N 
ATOM      8  H38 UNK     0      -0.964   0.485   0.693  0.00  0.00    +0.000 HD
BRANCH   7   9
ATOM      9  C22 UNK     0      -3.056   0.507   1.110  0.00  0.00    +0.000 C 
ATOM     10  S3  UNK     0      -4.230   0.208   2.226  0.00  0.00    +0.000 S 
BRANCH   9  11
ATOM     11  N11 UNK     0      -3.366   1.243  -0.085  0.00  0.00    +0.000 N 
ATOM     12  H41 UNK     0      -2.615   1.849  -0.487  0.00  0.00    +0.000 HD
BRANCH  11  13
ATOM     13  C23 UNK     0      -4.641   1.223  -0.749  0.00  0.00    +0.000 A 
ATOM     14  C24 UNK     0      -5.421   0.054  -0.799  0.00  0.00    +0.000 A 
ATOM     15  C26 UNK     0      -6.644   0.050  -1.476  0.00  0.00    +0.000 A 
ATOM     16  C28 UNK     0      -7.092   1.207  -2.123  0.00  0.00    +0.000 A 
ATOM     17  I1  UNK     0      -8.936   1.198  -3.146  0.00  0.00    +0.000 I 
ATOM     18  C27 UNK     0      -6.309   2.365  -2.099  0.00  0.00    +0.000 A 
ATOM     19  C25 UNK     0      -5.086   2.371  -1.422  0.00  0.00    +0.000 A 
ENDBRANCH  11  13
ENDBRANCH   9  11
ENDBRANCH   7   9
ENDBRANCH   6   7
ENDBRANCH   5   6
BRANCH   1  20
ATOM     20  C12 UNK     0       3.325  -2.232   1.594  0.00  0.00    +0.000 C 
BRANCH  20  21
ATOM     21  C13 UNK     0       3.603  -1.765   0.193  0.00  0.00    +0.000 A 
ATOM     22  C14 UNK     0       4.421  -0.645  -0.028  0.00  0.00    +0.000 A 
ATOM     23  C15 UNK     0       4.647  -0.178  -1.330  0.00  0.00    +0.000 A 
ATOM     24  C20 UNK     0       4.033  -0.821  -2.414  0.00  0.00    +0.000 A 
ATOM     25  C21 UNK     0       3.206  -1.927  -2.197  0.00  0.00    +0.000 A 
ATOM     26  C16 UNK     0       2.986  -2.395  -0.899  0.00  0.00    +0.000 A 
BRANCH  23  27
ATOM     27  S2  UNK     0       5.663   1.234  -1.595  0.00  0.00    +0.000 S 
ATOM     28  O5  UNK     0       6.240   1.197  -2.982  0.00  0.00    +0.000 OA
ATOM     29  O4  UNK     0       6.793   1.238  -0.603  0.00  0.00    +0.000 OA
BRANCH  27  30
ATOM     30  N10 UNK     0       4.715   2.667  -1.404  0.00  0.00    +0.000 NA
ATOM     31  H40 UNK     0       4.367   2.673  -0.419  0.00  0.00    +0.000 HD
ATOM     32  H39 UNK     0       5.366   3.479  -1.499  0.00  0.00    +0.000 HD
ENDBRANCH  27  30
ENDBRANCH  23  27
ENDBRANCH  20  21
ENDBRANCH   1  20
TORSDOF 9
