REMARK  Name = C:\Users\Maximilian\Desktop\Conformers\converted_pdb\conformers_pdb\T5342126_conf_5.pdb
REMARK  9 active torsions:
REMARK  status: ('A' for Active; 'I' for Inactive)
REMARK    1  A    between atoms: N6_1  and  C12_20
REMARK    2  A    between atoms: C18_5  and  C19_6
REMARK    3  A    between atoms: C19_6  and  N9_7
REMARK    4  A    between atoms: N9_7  and  C22_9
REMARK    5  A    between atoms: C22_9  and  N11_11
REMARK    6  A    between atoms: N11_11  and  C23_13
REMARK    7  A    between atoms: C12_20  and  C13_21
REMARK    8  A    between atoms: C15_23  and  S2_27
REMARK    9  A    between atoms: S2_27  and  N10_30
REMARK                            x       y       z     vdW  Elec       q    Type
REMARK                         _______ _______ _______ _____ _____    ______ ____
ROOT
ATOM      1  N6  UNK     0       1.586   1.018  -0.739  0.00  0.00    +0.000 N 
ATOM      2  N7  UNK     0       1.884   0.522  -1.930  0.00  0.00    +0.000 NA
ATOM      3  N8  UNK     0       0.932  -0.309  -2.332  0.00  0.00    +0.000 NA
ATOM      4  C17 UNK     0       0.419   0.490  -0.333  0.00  0.00    +0.000 A 
ATOM      5  C18 UNK     0       0.006  -0.339  -1.352  0.00  0.00    +0.000 A 
ENDROOT
BRANCH   5   6
ATOM      6  C19 UNK     0      -1.230  -1.180  -1.376  0.00  0.00    +0.000 C 
BRANCH   6   7
ATOM      7  N9  UNK     0      -2.414  -0.356  -1.135  0.00  0.00    +0.000 N 
ATOM      8  H38 UNK     0      -2.816  -0.365  -0.171  0.00  0.00    +0.000 HD
BRANCH   7   9
ATOM      9  C22 UNK     0      -3.030   0.477  -2.136  0.00  0.00    +0.000 C 
ATOM     10  S3  UNK     0      -2.275   0.778  -3.562  0.00  0.00    +0.000 S 
BRANCH   9  11
ATOM     11  N11 UNK     0      -4.249   1.178  -1.844  0.00  0.00    +0.000 N 
ATOM     12  H41 UNK     0      -4.411   2.097  -2.314  0.00  0.00    +0.000 HD
BRANCH  11  13
ATOM     13  C23 UNK     0      -5.255   0.696  -0.938  0.00  0.00    +0.000 A 
ATOM     14  C24 UNK     0      -6.066   1.615  -0.255  0.00  0.00    +0.000 A 
ATOM     15  C26 UNK     0      -7.067   1.168   0.613  0.00  0.00    +0.000 A 
ATOM     16  C28 UNK     0      -7.277  -0.202   0.794  0.00  0.00    +0.000 A 
ATOM     17  I1  UNK     0      -8.788  -0.875   2.103  0.00  0.00    +0.000 I 
ATOM     18  C27 UNK     0      -6.490  -1.126   0.100  0.00  0.00    +0.000 A 
ATOM     19  C25 UNK     0      -5.488  -0.682  -0.769  0.00  0.00    +0.000 A 
ENDBRANCH  11  13
ENDBRANCH   9  11
ENDBRANCH   7   9
ENDBRANCH   6   7
ENDBRANCH   5   6
BRANCH   1  20
ATOM     20  C12 UNK     0       2.454   1.905   0.026  0.00  0.00    +0.000 C 
BRANCH  20  21
ATOM     21  C13 UNK     0       3.367   1.094   0.902  0.00  0.00    +0.000 A 
ATOM     22  C14 UNK     0       4.583   0.607   0.394  0.00  0.00    +0.000 A 
ATOM     23  C15 UNK     0       5.418  -0.185   1.194  0.00  0.00    +0.000 A 
ATOM     24  C20 UNK     0       5.025  -0.509   2.500  0.00  0.00    +0.000 A 
ATOM     25  C21 UNK     0       3.809  -0.039   3.003  0.00  0.00    +0.000 A 
ATOM     26  C16 UNK     0       2.980   0.756   2.208  0.00  0.00    +0.000 A 
BRANCH  23  27
ATOM     27  S2  UNK     0       6.934  -0.804   0.545  0.00  0.00    +0.000 S 
ATOM     28  O5  UNK     0       7.913  -1.031   1.662  0.00  0.00    +0.000 OA
ATOM     29  O4  UNK     0       7.520   0.195  -0.413  0.00  0.00    +0.000 OA
BRANCH  27  30
ATOM     30  N10 UNK     0       6.645  -2.294  -0.280  0.00  0.00    +0.000 NA
ATOM     31  H40 UNK     0       6.199  -2.942   0.407  0.00  0.00    +0.000 HD
ATOM     32  H39 UNK     0       5.931  -2.101  -1.018  0.00  0.00    +0.000 HD
ENDBRANCH  27  30
ENDBRANCH  23  27
ENDBRANCH  20  21
ENDBRANCH   1  20
TORSDOF 9
