REMARK  Name = C:\Users\Maximilian\Desktop\Conformers\converted_pdb\conformers_pdb\T5342126_conf_61.pdb
REMARK  9 active torsions:
REMARK  status: ('A' for Active; 'I' for Inactive)
REMARK    1  A    between atoms: N6_1  and  C12_20
REMARK    2  A    between atoms: C18_5  and  C19_6
REMARK    3  A    between atoms: C19_6  and  N9_7
REMARK    4  A    between atoms: N9_7  and  C22_9
REMARK    5  A    between atoms: C22_9  and  N11_11
REMARK    6  A    between atoms: N11_11  and  C23_13
REMARK    7  A    between atoms: C12_20  and  C13_21
REMARK    8  A    between atoms: C15_23  and  S2_27
REMARK    9  A    between atoms: S2_27  and  N10_30
REMARK                            x       y       z     vdW  Elec       q    Type
REMARK                         _______ _______ _______ _____ _____    ______ ____
ROOT
ATOM      1  N6  UNK     0       1.673  -2.136   2.310  0.00  0.00    +0.000 N 
ATOM      2  N7  UNK     0       1.401  -3.413   2.092  0.00  0.00    +0.000 NA
ATOM      3  N8  UNK     0       0.089  -3.607   2.068  0.00  0.00    +0.000 NA
ATOM      4  C17 UNK     0       0.515  -1.466   2.420  0.00  0.00    +0.000 A 
ATOM      5  C18 UNK     0      -0.482  -2.402   2.265  0.00  0.00    +0.000 A 
ENDROOT
BRANCH   5   6
ATOM      6  C19 UNK     0      -1.949  -2.126   2.168  0.00  0.00    +0.000 C 
BRANCH   6   7
ATOM      7  N9  UNK     0      -2.200  -1.091   1.164  0.00  0.00    +0.000 N 
ATOM      8  H38 UNK     0      -2.384  -0.126   1.517  0.00  0.00    +0.000 HD
BRANCH   7   9
ATOM      9  C22 UNK     0      -2.064  -1.296  -0.257  0.00  0.00    +0.000 C 
ATOM     10  S3  UNK     0      -1.617  -2.757  -0.861  0.00  0.00    +0.000 S 
BRANCH   9  11
ATOM     11  N11 UNK     0      -2.169  -0.187  -1.163  0.00  0.00    +0.000 N 
ATOM     12  H41 UNK     0      -1.594  -0.213  -2.036  0.00  0.00    +0.000 HD
BRANCH  11  13
ATOM     13  C23 UNK     0      -3.006   0.959  -0.942  0.00  0.00    +0.000 A 
ATOM     14  C24 UNK     0      -4.219   0.855  -0.236  0.00  0.00    +0.000 A 
ATOM     15  C26 UNK     0      -5.029   1.980  -0.055  0.00  0.00    +0.000 A 
ATOM     16  C28 UNK     0      -4.645   3.214  -0.588  0.00  0.00    +0.000 A 
ATOM     17  I1  UNK     0      -5.868   4.909  -0.314  0.00  0.00    +0.000 I 
ATOM     18  C27 UNK     0      -3.453   3.320  -1.312  0.00  0.00    +0.000 A 
ATOM     19  C25 UNK     0      -2.642   2.196  -1.495  0.00  0.00    +0.000 A 
ENDBRANCH  11  13
ENDBRANCH   9  11
ENDBRANCH   7   9
ENDBRANCH   6   7
ENDBRANCH   5   6
BRANCH   1  20
ATOM     20  C12 UNK     0       3.000  -1.544   2.180  0.00  0.00    +0.000 C 
BRANCH  20  21
ATOM     21  C13 UNK     0       3.230  -1.148   0.747  0.00  0.00    +0.000 A 
ATOM     22  C14 UNK     0       2.631   0.016   0.237  0.00  0.00    +0.000 A 
ATOM     23  C15 UNK     0       2.747   0.338  -1.122  0.00  0.00    +0.000 A 
ATOM     24  C20 UNK     0       3.489  -0.495  -1.970  0.00  0.00    +0.000 A 
ATOM     25  C21 UNK     0       4.089  -1.653  -1.468  0.00  0.00    +0.000 A 
ATOM     26  C16 UNK     0       3.951  -1.987  -0.117  0.00  0.00    +0.000 A 
BRANCH  23  27
ATOM     27  S2  UNK     0       1.966   1.779  -1.765  0.00  0.00    +0.000 S 
ATOM     28  O5  UNK     0       0.847   2.207  -0.855  0.00  0.00    +0.000 OA
ATOM     29  O4  UNK     0       1.393   1.478  -3.122  0.00  0.00    +0.000 OA
BRANCH  27  30
ATOM     30  N10 UNK     0       3.122   3.058  -1.894  0.00  0.00    +0.000 NA
ATOM     31  H40 UNK     0       3.915   2.696  -2.472  0.00  0.00    +0.000 HD
ATOM     32  H39 UNK     0       3.501   3.223  -0.934  0.00  0.00    +0.000 HD
ENDBRANCH  27  30
ENDBRANCH  23  27
ENDBRANCH  20  21
ENDBRANCH   1  20
TORSDOF 9
