REMARK  Name = C:\Users\Maximilian\Desktop\Conformers\converted_pdb\conformers_pdb\T5342126_conf_10.pdb
REMARK  9 active torsions:
REMARK  status: ('A' for Active; 'I' for Inactive)
REMARK    1  A    between atoms: N6_1  and  C12_20
REMARK    2  A    between atoms: C18_5  and  C19_6
REMARK    3  A    between atoms: C19_6  and  N9_7
REMARK    4  A    between atoms: N9_7  and  C22_9
REMARK    5  A    between atoms: C22_9  and  N11_11
REMARK    6  A    between atoms: N11_11  and  C23_13
REMARK    7  A    between atoms: C12_20  and  C13_21
REMARK    8  A    between atoms: C15_23  and  S2_27
REMARK    9  A    between atoms: S2_27  and  N10_30
REMARK                            x       y       z     vdW  Elec       q    Type
REMARK                         _______ _______ _______ _____ _____    ______ ____
ROOT
ATOM      1  N6  UNK     0       0.030  -0.026  -0.036  0.00  0.00    +0.000 N 
ATOM      2  N7  UNK     0       0.243   1.248  -0.323  0.00  0.00    +0.000 NA
ATOM      3  N8  UNK     0       0.614   1.378  -1.589  0.00  0.00    +0.000 NA
ATOM      4  C17 UNK     0       0.242  -0.757  -1.142  0.00  0.00    +0.000 A 
ATOM      5  C18 UNK     0       0.628   0.137  -2.117  0.00  0.00    +0.000 A 
ENDROOT
BRANCH   5   6
ATOM      6  C19 UNK     0       1.038  -0.184  -3.522  0.00  0.00    +0.000 C 
BRANCH   6   7
ATOM      7  N9  UNK     0       1.981  -1.302  -3.548  0.00  0.00    +0.000 N 
ATOM      8  H38 UNK     0       1.697  -2.176  -4.048  0.00  0.00    +0.000 HD
BRANCH   7   9
ATOM      9  C22 UNK     0       3.255  -1.260  -2.889  0.00  0.00    +0.000 C 
ATOM     10  S3  UNK     0       4.233  -2.574  -2.923  0.00  0.00    +0.000 S 
BRANCH   9  11
ATOM     11  N11 UNK     0       3.701  -0.064  -2.240  0.00  0.00    +0.000 N 
ATOM     12  H41 UNK     0       3.811   0.788  -2.836  0.00  0.00    +0.000 HD
BRANCH  11  13
ATOM     13  C23 UNK     0       3.767   0.082  -0.809  0.00  0.00    +0.000 A 
ATOM     14  C24 UNK     0       4.174   1.310  -0.263  0.00  0.00    +0.000 A 
ATOM     15  C26 UNK     0       4.185   1.503   1.122  0.00  0.00    +0.000 A 
ATOM     16  C28 UNK     0       3.783   0.473   1.976  0.00  0.00    +0.000 A 
ATOM     17  I1  UNK     0       3.769   0.775   4.062  0.00  0.00    +0.000 I 
ATOM     18  C27 UNK     0       3.378  -0.755   1.445  0.00  0.00    +0.000 A 
ATOM     19  C25 UNK     0       3.372  -0.954   0.061  0.00  0.00    +0.000 A 
ENDBRANCH  11  13
ENDBRANCH   9  11
ENDBRANCH   7   9
ENDBRANCH   6   7
ENDBRANCH   5   6
BRANCH   1  20
ATOM     20  C12 UNK     0      -0.393  -0.520   1.269  0.00  0.00    +0.000 C 
BRANCH  20  21
ATOM     21  C13 UNK     0      -1.890  -0.637   1.309  0.00  0.00    +0.000 A 
ATOM     22  C14 UNK     0      -2.674   0.452   1.724  0.00  0.00    +0.000 A 
ATOM     23  C15 UNK     0      -4.072   0.359   1.725  0.00  0.00    +0.000 A 
ATOM     24  C20 UNK     0      -4.689  -0.821   1.288  0.00  0.00    +0.000 A 
ATOM     25  C21 UNK     0      -3.913  -1.902   0.860  0.00  0.00    +0.000 A 
ATOM     26  C16 UNK     0      -2.520  -1.810   0.865  0.00  0.00    +0.000 A 
BRANCH  23  27
ATOM     27  S2  UNK     0      -5.039   1.736   2.246  0.00  0.00    +0.000 S 
ATOM     28  O5  UNK     0      -4.467   2.297   3.518  0.00  0.00    +0.000 OA
ATOM     29  O4  UNK     0      -6.456   1.307   2.503  0.00  0.00    +0.000 OA
BRANCH  27  30
ATOM     30  N10 UNK     0      -5.026   2.953   1.017  0.00  0.00    +0.000 NA
ATOM     31  H40 UNK     0      -5.333   2.495   0.130  0.00  0.00    +0.000 HD
ATOM     32  H39 UNK     0      -4.030   3.238   0.880  0.00  0.00    +0.000 HD
ENDBRANCH  27  30
ENDBRANCH  23  27
ENDBRANCH  20  21
ENDBRANCH   1  20
TORSDOF 9
