REMARK  Name = C:\Users\Maximilian\Desktop\Conformers\converted_pdb\conformers_pdb\T5342126_conf_32.pdb
REMARK  9 active torsions:
REMARK  status: ('A' for Active; 'I' for Inactive)
REMARK    1  A    between atoms: N6_1  and  C12_20
REMARK    2  A    between atoms: C18_5  and  C19_6
REMARK    3  A    between atoms: C19_6  and  N9_7
REMARK    4  A    between atoms: N9_7  and  C22_9
REMARK    5  A    between atoms: C22_9  and  N11_11
REMARK    6  A    between atoms: N11_11  and  C23_13
REMARK    7  A    between atoms: C12_20  and  C13_21
REMARK    8  A    between atoms: C15_23  and  S2_27
REMARK    9  A    between atoms: S2_27  and  N10_30
REMARK                            x       y       z     vdW  Elec       q    Type
REMARK                         _______ _______ _______ _____ _____    ______ ____
ROOT
ATOM      1  N6  UNK     0      -1.938  -1.751  -0.456  0.00  0.00    +0.000 N 
ATOM      2  N7  UNK     0      -1.639  -1.319  -1.671  0.00  0.00    +0.000 NA
ATOM      3  N8  UNK     0      -0.433  -0.769  -1.680  0.00  0.00    +0.000 NA
ATOM      4  C17 UNK     0      -0.913  -1.466   0.364  0.00  0.00    +0.000 A 
ATOM      5  C18 UNK     0       0.032  -0.840  -0.417  0.00  0.00    +0.000 A 
ENDROOT
BRANCH   5   6
ATOM      6  C19 UNK     0       1.390  -0.384   0.016  0.00  0.00    +0.000 C 
BRANCH   6   7
ATOM      7  N9  UNK     0       2.355  -1.479  -0.077  0.00  0.00    +0.000 N 
ATOM      8  H38 UNK     0       2.022  -2.438  -0.331  0.00  0.00    +0.000 HD
BRANCH   7   9
ATOM      9  C22 UNK     0       3.763  -1.275   0.113  0.00  0.00    +0.000 C 
ATOM     10  S3  UNK     0       4.774  -2.562  -0.024  0.00  0.00    +0.000 S 
BRANCH   9  11
ATOM     11  N11 UNK     0       4.260  -0.011   0.587  0.00  0.00    +0.000 N 
ATOM     12  H41 UNK     0       3.654   0.546   1.231  0.00  0.00    +0.000 HD
BRANCH  11  13
ATOM     13  C23 UNK     0       5.561   0.514   0.274  0.00  0.00    +0.000 A 
ATOM     14  C24 UNK     0       6.203   1.362   1.190  0.00  0.00    +0.000 A 
ATOM     15  C26 UNK     0       7.458   1.903   0.895  0.00  0.00    +0.000 A 
ATOM     16  C28 UNK     0       8.076   1.616  -0.325  0.00  0.00    +0.000 A 
ATOM     17  I1  UNK     0       9.966   2.438  -0.771  0.00  0.00    +0.000 I 
ATOM     18  C27 UNK     0       7.434   0.791  -1.255  0.00  0.00    +0.000 A 
ATOM     19  C25 UNK     0       6.180   0.248  -0.962  0.00  0.00    +0.000 A 
ENDBRANCH  11  13
ENDBRANCH   9  11
ENDBRANCH   7   9
ENDBRANCH   6   7
ENDBRANCH   5   6
BRANCH   1  20
ATOM     20  C12 UNK     0      -3.211  -2.355  -0.083  0.00  0.00    +0.000 C 
BRANCH  20  21
ATOM     21  C13 UNK     0      -4.143  -1.297   0.440  0.00  0.00    +0.000 A 
ATOM     22  C14 UNK     0      -4.926  -0.543  -0.449  0.00  0.00    +0.000 A 
ATOM     23  C15 UNK     0      -5.763   0.473   0.031  0.00  0.00    +0.000 A 
ATOM     24  C20 UNK     0      -5.801   0.750   1.405  0.00  0.00    +0.000 A 
ATOM     25  C21 UNK     0      -5.012   0.012   2.292  0.00  0.00    +0.000 A 
ATOM     26  C16 UNK     0      -4.182  -1.005   1.813  0.00  0.00    +0.000 A 
BRANCH  23  27
ATOM     27  S2  UNK     0      -6.728   1.425  -1.094  0.00  0.00    +0.000 S 
ATOM     28  O5  UNK     0      -7.939   1.973  -0.393  0.00  0.00    +0.000 OA
ATOM     29  O4  UNK     0      -7.183   0.555  -2.232  0.00  0.00    +0.000 OA
BRANCH  27  30
ATOM     30  N10 UNK     0      -5.779   2.732  -1.709  0.00  0.00    +0.000 NA
ATOM     31  H40 UNK     0      -4.939   2.311  -2.164  0.00  0.00    +0.000 HD
ATOM     32  H39 UNK     0      -5.435   3.273  -0.884  0.00  0.00    +0.000 HD
ENDBRANCH  27  30
ENDBRANCH  23  27
ENDBRANCH  20  21
ENDBRANCH   1  20
TORSDOF 9
