REMARK  Name = C:\Users\Maximilian\Desktop\Conformers\converted_pdb\conformers_pdb\T5342126_conf_38.pdb
REMARK  9 active torsions:
REMARK  status: ('A' for Active; 'I' for Inactive)
REMARK    1  A    between atoms: N6_1  and  C12_20
REMARK    2  A    between atoms: C18_5  and  C19_6
REMARK    3  A    between atoms: C19_6  and  N9_7
REMARK    4  A    between atoms: N9_7  and  C22_9
REMARK    5  A    between atoms: C22_9  and  N11_11
REMARK    6  A    between atoms: N11_11  and  C23_13
REMARK    7  A    between atoms: C12_20  and  C13_21
REMARK    8  A    between atoms: C15_23  and  S2_27
REMARK    9  A    between atoms: S2_27  and  N10_30
REMARK                            x       y       z     vdW  Elec       q    Type
REMARK                         _______ _______ _______ _____ _____    ______ ____
ROOT
ATOM      1  N6  UNK     0      -1.687   0.801  -2.322  0.00  0.00    +0.000 N 
ATOM      2  N7  UNK     0      -0.942   0.084  -3.148  0.00  0.00    +0.000 NA
ATOM      3  N8  UNK     0       0.223  -0.204  -2.583  0.00  0.00    +0.000 NA
ATOM      4  C17 UNK     0      -1.008   0.979  -1.176  0.00  0.00    +0.000 A 
ATOM      5  C18 UNK     0       0.196   0.335  -1.348  0.00  0.00    +0.000 A 
ENDROOT
BRANCH   5   6
ATOM      6  C19 UNK     0       1.336   0.299  -0.380  0.00  0.00    +0.000 C 
BRANCH   6   7
ATOM      7  N9  UNK     0       2.201   1.464  -0.558  0.00  0.00    +0.000 N 
ATOM      8  H38 UNK     0       1.924   2.211  -1.237  0.00  0.00    +0.000 HD
BRANCH   7   9
ATOM      9  C22 UNK     0       3.458   1.593   0.123  0.00  0.00    +0.000 C 
ATOM     10  S3  UNK     0       4.378   2.923  -0.160  0.00  0.00    +0.000 S 
BRANCH   9  11
ATOM     11  N11 UNK     0       3.823   0.669   1.163  0.00  0.00    +0.000 N 
ATOM     12  H41 UNK     0       3.060   0.262   1.749  0.00  0.00    +0.000 HD
BRANCH  11  13
ATOM     13  C23 UNK     0       5.177   0.308   1.483  0.00  0.00    +0.000 A 
ATOM     14  C24 UNK     0       6.174   0.254   0.491  0.00  0.00    +0.000 A 
ATOM     15  C26 UNK     0       7.478  -0.127   0.822  0.00  0.00    +0.000 A 
ATOM     16  C28 UNK     0       7.797  -0.469   2.139  0.00  0.00    +0.000 A 
ATOM     17  I1  UNK     0       9.764  -1.045   2.634  0.00  0.00    +0.000 I 
ATOM     18  C27 UNK     0       6.807  -0.439   3.126  0.00  0.00    +0.000 A 
ATOM     19  C25 UNK     0       5.501  -0.060   2.798  0.00  0.00    +0.000 A 
ENDBRANCH  11  13
ENDBRANCH   9  11
ENDBRANCH   7   9
ENDBRANCH   6   7
ENDBRANCH   5   6
BRANCH   1  20
ATOM     20  C12 UNK     0      -3.049   1.237  -2.605  0.00  0.00    +0.000 C 
BRANCH  20  21
ATOM     21  C13 UNK     0      -4.028   0.225  -2.077  0.00  0.00    +0.000 A 
ATOM     22  C14 UNK     0      -4.485   0.309  -0.752  0.00  0.00    +0.000 A 
ATOM     23  C15 UNK     0      -5.364  -0.658  -0.243  0.00  0.00    +0.000 A 
ATOM     24  C20 UNK     0      -5.770  -1.723  -1.058  0.00  0.00    +0.000 A 
ATOM     25  C21 UNK     0      -5.306  -1.818  -2.373  0.00  0.00    +0.000 A 
ATOM     26  C16 UNK     0      -4.434  -0.852  -2.881  0.00  0.00    +0.000 A 
BRANCH  23  27
ATOM     27  S2  UNK     0      -5.921  -0.554   1.423  0.00  0.00    +0.000 S 
ATOM     28  O5  UNK     0      -7.276  -1.194   1.550  0.00  0.00    +0.000 OA
ATOM     29  O4  UNK     0      -6.029   0.887   1.835  0.00  0.00    +0.000 OA
BRANCH  27  30
ATOM     30  N10 UNK     0      -4.797  -1.366   2.455  0.00  0.00    +0.000 NA
ATOM     31  H40 UNK     0      -4.780  -2.368   2.159  0.00  0.00    +0.000 HD
ATOM     32  H39 UNK     0      -5.196  -1.344   3.420  0.00  0.00    +0.000 HD
ENDBRANCH  27  30
ENDBRANCH  23  27
ENDBRANCH  20  21
ENDBRANCH   1  20
TORSDOF 9
