REMARK  Name = C:\Users\Maximilian\Desktop\Conformers\converted_pdb\conformers_pdb\T5342126_conf_9.pdb
REMARK  9 active torsions:
REMARK  status: ('A' for Active; 'I' for Inactive)
REMARK    1  A    between atoms: N6_1  and  C12_20
REMARK    2  A    between atoms: C18_5  and  C19_6
REMARK    3  A    between atoms: C19_6  and  N9_7
REMARK    4  A    between atoms: N9_7  and  C22_9
REMARK    5  A    between atoms: C22_9  and  N11_11
REMARK    6  A    between atoms: N11_11  and  C23_13
REMARK    7  A    between atoms: C12_20  and  C13_21
REMARK    8  A    between atoms: C15_23  and  S2_27
REMARK    9  A    between atoms: S2_27  and  N10_30
REMARK                            x       y       z     vdW  Elec       q    Type
REMARK                         _______ _______ _______ _____ _____    ______ ____
ROOT
ATOM      1  N6  UNK     0      -1.090   1.078   1.166  0.00  0.00    +0.000 N 
ATOM      2  N7  UNK     0      -0.672   1.052   2.422  0.00  0.00    +0.000 NA
ATOM      3  N8  UNK     0       0.142   0.024   2.615  0.00  0.00    +0.000 NA
ATOM      4  C17 UNK     0      -0.556   0.031   0.515  0.00  0.00    +0.000 A 
ATOM      5  C18 UNK     0       0.233  -0.623   1.435  0.00  0.00    +0.000 A 
ENDROOT
BRANCH   5   6
ATOM      6  C19 UNK     0       1.023  -1.873   1.210  0.00  0.00    +0.000 C 
BRANCH   6   7
ATOM      7  N9  UNK     0       1.919  -1.713   0.065  0.00  0.00    +0.000 N 
ATOM      8  H38 UNK     0       1.676  -2.221  -0.816  0.00  0.00    +0.000 HD
BRANCH   7   9
ATOM      9  C22 UNK     0       3.127  -0.933   0.086  0.00  0.00    +0.000 C 
ATOM     10  S3  UNK     0       3.552  -0.078   1.429  0.00  0.00    +0.000 S 
BRANCH   9  11
ATOM     11  N11 UNK     0       3.865  -0.771  -1.137  0.00  0.00    +0.000 N 
ATOM     12  H41 UNK     0       3.342  -0.881  -2.034  0.00  0.00    +0.000 HD
BRANCH  11  13
ATOM     13  C23 UNK     0       5.262  -0.437  -1.211  0.00  0.00    +0.000 A 
ATOM     14  C24 UNK     0       6.184  -0.936  -0.274  0.00  0.00    +0.000 A 
ATOM     15  C26 UNK     0       7.542  -0.621  -0.383  0.00  0.00    +0.000 A 
ATOM     16  C28 UNK     0       7.993   0.181  -1.436  0.00  0.00    +0.000 A 
ATOM     17  I1  UNK     0      10.042   0.654  -1.599  0.00  0.00    +0.000 I 
ATOM     18  C27 UNK     0       7.086   0.661  -2.385  0.00  0.00    +0.000 A 
ATOM     19  C25 UNK     0       5.727   0.346  -2.278  0.00  0.00    +0.000 A 
ENDBRANCH  11  13
ENDBRANCH   9  11
ENDBRANCH   7   9
ENDBRANCH   6   7
ENDBRANCH   5   6
BRANCH   1  20
ATOM     20  C12 UNK     0      -2.056   2.032   0.636  0.00  0.00    +0.000 C 
BRANCH  20  21
ATOM     21  C13 UNK     0      -3.449   1.493   0.803  0.00  0.00    +0.000 A 
ATOM     22  C14 UNK     0      -4.008   0.664  -0.183  0.00  0.00    +0.000 A 
ATOM     23  C15 UNK     0      -5.288   0.120  -0.009  0.00  0.00    +0.000 A 
ATOM     24  C20 UNK     0      -6.013   0.411   1.154  0.00  0.00    +0.000 A 
ATOM     25  C21 UNK     0      -5.455   1.224   2.144  0.00  0.00    +0.000 A 
ATOM     26  C16 UNK     0      -4.175   1.758   1.975  0.00  0.00    +0.000 A 
BRANCH  23  27
ATOM     27  S2  UNK     0      -5.992  -0.905  -1.256  0.00  0.00    +0.000 S 
ATOM     28  O5  UNK     0      -6.898  -1.925  -0.624  0.00  0.00    +0.000 OA
ATOM     29  O4  UNK     0      -4.902  -1.624  -1.999  0.00  0.00    +0.000 OA
BRANCH  27  30
ATOM     30  N10 UNK     0      -6.895   0.072  -2.359  0.00  0.00    +0.000 NA
ATOM     31  H40 UNK     0      -7.683   0.494  -1.818  0.00  0.00    +0.000 HD
ATOM     32  H39 UNK     0      -7.323  -0.574  -3.060  0.00  0.00    +0.000 HD
ENDBRANCH  27  30
ENDBRANCH  23  27
ENDBRANCH  20  21
ENDBRANCH   1  20
TORSDOF 9
