REMARK  Name = C:\Users\Maximilian\Desktop\Conformers\converted_pdb\conformers_pdb\T5342126_conf_56.pdb
REMARK  9 active torsions:
REMARK  status: ('A' for Active; 'I' for Inactive)
REMARK    1  A    between atoms: N6_1  and  C12_20
REMARK    2  A    between atoms: C18_5  and  C19_6
REMARK    3  A    between atoms: C19_6  and  N9_7
REMARK    4  A    between atoms: N9_7  and  C22_9
REMARK    5  A    between atoms: C22_9  and  N11_11
REMARK    6  A    between atoms: N11_11  and  C23_13
REMARK    7  A    between atoms: C12_20  and  C13_21
REMARK    8  A    between atoms: C15_23  and  S2_27
REMARK    9  A    between atoms: S2_27  and  N10_30
REMARK                            x       y       z     vdW  Elec       q    Type
REMARK                         _______ _______ _______ _____ _____    ______ ____
ROOT
ATOM      1  N6  UNK     0      -1.916  -0.997   1.540  0.00  0.00    +0.000 N 
ATOM      2  N7  UNK     0      -2.057   0.075   2.304  0.00  0.00    +0.000 NA
ATOM      3  N8  UNK     0      -0.965   0.824   2.251  0.00  0.00    +0.000 NA
ATOM      4  C17 UNK     0      -0.709  -0.950   0.952  0.00  0.00    +0.000 A 
ATOM      5  C18 UNK     0      -0.115   0.208   1.404  0.00  0.00    +0.000 A 
ENDROOT
BRANCH   5   6
ATOM      6  C19 UNK     0       1.269   0.682   1.093  0.00  0.00    +0.000 C 
BRANCH   6   7
ATOM      7  N9  UNK     0       2.239   0.068   2.000  0.00  0.00    +0.000 N 
ATOM      8  H38 UNK     0       1.899  -0.530   2.788  0.00  0.00    +0.000 HD
BRANCH   7   9
ATOM      9  C22 UNK     0       3.655   0.205   1.808  0.00  0.00    +0.000 C 
ATOM     10  S3  UNK     0       4.671  -0.545   2.857  0.00  0.00    +0.000 S 
BRANCH   9  11
ATOM     11  N11 UNK     0       4.173   1.121   0.828  0.00  0.00    +0.000 N 
ATOM     12  H41 UNK     0       3.631   1.993   0.636  0.00  0.00    +0.000 HD
BRANCH  11  13
ATOM     13  C23 UNK     0       5.419   0.941   0.133  0.00  0.00    +0.000 A 
ATOM     14  C24 UNK     0       6.137   2.067  -0.300  0.00  0.00    +0.000 A 
ATOM     15  C26 UNK     0       7.338   1.914  -1.000  0.00  0.00    +0.000 A 
ATOM     16  C28 UNK     0       7.825   0.635  -1.286  0.00  0.00    +0.000 A 
ATOM     17  I1  UNK     0       9.635   0.407  -2.344  0.00  0.00    +0.000 I 
ATOM     18  C27 UNK     0       7.105  -0.492  -0.878  0.00  0.00    +0.000 A 
ATOM     19  C25 UNK     0       5.904  -0.342  -0.178  0.00  0.00    +0.000 A 
ENDBRANCH  11  13
ENDBRANCH   9  11
ENDBRANCH   7   9
ENDBRANCH   6   7
ENDBRANCH   5   6
BRANCH   1  20
ATOM     20  C12 UNK     0      -2.953  -1.998   1.322  0.00  0.00    +0.000 C 
BRANCH  20  21
ATOM     21  C13 UNK     0      -3.781  -1.622   0.125  0.00  0.00    +0.000 A 
ATOM     22  C14 UNK     0      -4.868  -0.745   0.266  0.00  0.00    +0.000 A 
ATOM     23  C15 UNK     0      -5.617  -0.359  -0.855  0.00  0.00    +0.000 A 
ATOM     24  C20 UNK     0      -5.261  -0.834  -2.124  0.00  0.00    +0.000 A 
ATOM     25  C21 UNK     0      -4.170  -1.695  -2.271  0.00  0.00    +0.000 A 
ATOM     26  C16 UNK     0      -3.429  -2.085  -1.153  0.00  0.00    +0.000 A 
BRANCH  23  27
ATOM     27  S2  UNK     0      -6.970   0.753  -0.671  0.00  0.00    +0.000 S 
ATOM     28  O5  UNK     0      -7.651   0.508   0.647  0.00  0.00    +0.000 OA
ATOM     29  O4  UNK     0      -7.966   0.534  -1.775  0.00  0.00    +0.000 OA
BRANCH  27  30
ATOM     30  N10 UNK     0      -6.394   2.382  -0.729  0.00  0.00    +0.000 NA
ATOM     31  H40 UNK     0      -5.679   2.480   0.026  0.00  0.00    +0.000 HD
ATOM     32  H39 UNK     0      -5.890   2.494  -1.637  0.00  0.00    +0.000 HD
ENDBRANCH  27  30
ENDBRANCH  23  27
ENDBRANCH  20  21
ENDBRANCH   1  20
TORSDOF 9
