REMARK  Name = C:\Users\Maximilian\Desktop\Conformers\converted_pdb\conformers_pdb\T5342126_conf_7.pdb
REMARK  9 active torsions:
REMARK  status: ('A' for Active; 'I' for Inactive)
REMARK    1  A    between atoms: N6_1  and  C12_20
REMARK    2  A    between atoms: C18_5  and  C19_6
REMARK    3  A    between atoms: C19_6  and  N9_7
REMARK    4  A    between atoms: N9_7  and  C22_9
REMARK    5  A    between atoms: C22_9  and  N11_11
REMARK    6  A    between atoms: N11_11  and  C23_13
REMARK    7  A    between atoms: C12_20  and  C13_21
REMARK    8  A    between atoms: C15_23  and  S2_27
REMARK    9  A    between atoms: S2_27  and  N10_30
REMARK                            x       y       z     vdW  Elec       q    Type
REMARK                         _______ _______ _______ _____ _____    ______ ____
ROOT
ATOM      1  N6  UNK     0      -1.807  -1.430   1.200  0.00  0.00    +0.000 N 
ATOM      2  N7  UNK     0      -1.522  -2.711   1.029  0.00  0.00    +0.000 NA
ATOM      3  N8  UNK     0      -0.461  -2.845   0.245  0.00  0.00    +0.000 NA
ATOM      4  C17 UNK     0      -0.925  -0.696   0.501  0.00  0.00    +0.000 A 
ATOM      5  C18 UNK     0      -0.080  -1.599  -0.105  0.00  0.00    +0.000 A 
ENDROOT
BRANCH   5   6
ATOM      6  C19 UNK     0       1.118  -1.280  -0.941  0.00  0.00    +0.000 C 
BRANCH   6   7
ATOM      7  N9  UNK     0       2.295  -1.068  -0.098  0.00  0.00    +0.000 N 
ATOM      8  H38 UNK     0       2.204  -1.158   0.940  0.00  0.00    +0.000 HD
BRANCH   7   9
ATOM      9  C22 UNK     0       3.580  -0.698  -0.625  0.00  0.00    +0.000 C 
ATOM     10  S3  UNK     0       3.833  -0.654  -2.252  0.00  0.00    +0.000 S 
BRANCH   9  11
ATOM     11  N11 UNK     0       4.684  -0.551   0.282  0.00  0.00    +0.000 N 
ATOM     12  H41 UNK     0       4.635  -1.067   1.190  0.00  0.00    +0.000 HD
BRANCH  11  13
ATOM     13  C23 UNK     0       5.861   0.231   0.017  0.00  0.00    +0.000 A 
ATOM     14  C24 UNK     0       5.791   1.435  -0.706  0.00  0.00    +0.000 A 
ATOM     15  C26 UNK     0       6.944   2.195  -0.926  0.00  0.00    +0.000 A 
ATOM     16  C28 UNK     0       8.173   1.768  -0.413  0.00  0.00    +0.000 A 
ATOM     17  I1  UNK     0       9.911   2.916  -0.744  0.00  0.00    +0.000 I 
ATOM     18  C27 UNK     0       8.246   0.585   0.327  0.00  0.00    +0.000 A 
ATOM     19  C25 UNK     0       7.094  -0.176   0.549  0.00  0.00    +0.000 A 
ENDBRANCH  11  13
ENDBRANCH   9  11
ENDBRANCH   7   9
ENDBRANCH   6   7
ENDBRANCH   5   6
BRANCH   1  20
ATOM     20  C12 UNK     0      -2.950  -0.932   1.956  0.00  0.00    +0.000 C 
BRANCH  20  21
ATOM     21  C13 UNK     0      -4.134  -0.773   1.044  0.00  0.00    +0.000 A 
ATOM     22  C14 UNK     0      -4.322   0.424   0.334  0.00  0.00    +0.000 A 
ATOM     23  C15 UNK     0      -5.399   0.559  -0.554  0.00  0.00    +0.000 A 
ATOM     24  C20 UNK     0      -6.293  -0.506  -0.727  0.00  0.00    +0.000 A 
ATOM     25  C21 UNK     0      -6.100  -1.704  -0.034  0.00  0.00    +0.000 A 
ATOM     26  C16 UNK     0      -5.021  -1.841   0.843  0.00  0.00    +0.000 A 
BRANCH  23  27
ATOM     27  S2  UNK     0      -5.640   2.071  -1.425  0.00  0.00    +0.000 S 
ATOM     28  O5  UNK     0      -6.352   1.804  -2.722  0.00  0.00    +0.000 OA
ATOM     29  O4  UNK     0      -4.309   2.700  -1.728  0.00  0.00    +0.000 OA
BRANCH  27  30
ATOM     30  N10 UNK     0      -6.584   3.152  -0.462  0.00  0.00    +0.000 NA
ATOM     31  H40 UNK     0      -7.477   2.659  -0.238  0.00  0.00    +0.000 HD
ATOM     32  H39 UNK     0      -6.075   3.278   0.442  0.00  0.00    +0.000 HD
ENDBRANCH  27  30
ENDBRANCH  23  27
ENDBRANCH  20  21
ENDBRANCH   1  20
TORSDOF 9
