REMARK  Name = C:\Users\Maximilian\Desktop\Conformers\converted_pdb\conformers_pdb\T5342126_conf_18.pdb
REMARK  9 active torsions:
REMARK  status: ('A' for Active; 'I' for Inactive)
REMARK    1  A    between atoms: N6_1  and  C12_20
REMARK    2  A    between atoms: C18_5  and  C19_6
REMARK    3  A    between atoms: C19_6  and  N9_7
REMARK    4  A    between atoms: N9_7  and  C22_9
REMARK    5  A    between atoms: C22_9  and  N11_11
REMARK    6  A    between atoms: N11_11  and  C23_13
REMARK    7  A    between atoms: C12_20  and  C13_21
REMARK    8  A    between atoms: C15_23  and  S2_27
REMARK    9  A    between atoms: S2_27  and  N10_30
REMARK                            x       y       z     vdW  Elec       q    Type
REMARK                         _______ _______ _______ _____ _____    ______ ____
ROOT
ATOM      1  N6  UNK     0      -1.980   1.163  -1.287  0.00  0.00    +0.000 N 
ATOM      2  N7  UNK     0      -1.783   1.915  -0.216  0.00  0.00    +0.000 NA
ATOM      3  N8  UNK     0      -0.568   1.710   0.273  0.00  0.00    +0.000 NA
ATOM      4  C17 UNK     0      -0.877   0.429  -1.505  0.00  0.00    +0.000 A 
ATOM      5  C18 UNK     0       0.010   0.778  -0.510  0.00  0.00    +0.000 A 
ENDROOT
BRANCH   5   6
ATOM      6  C19 UNK     0       1.416   0.291  -0.355  0.00  0.00    +0.000 C 
BRANCH   6   7
ATOM      7  N9  UNK     0       2.352   1.203  -1.010  0.00  0.00    +0.000 N 
ATOM      8  H38 UNK     0       1.983   2.013  -1.560  0.00  0.00    +0.000 HD
BRANCH   7   9
ATOM      9  C22 UNK     0       3.774   1.071  -0.864  0.00  0.00    +0.000 C 
ATOM     10  S3  UNK     0       4.751   2.174  -1.590  0.00  0.00    +0.000 S 
BRANCH   9  11
ATOM     11  N11 UNK     0       4.337  -0.103  -0.253  0.00  0.00    +0.000 N 
ATOM     12  H41 UNK     0       3.833  -1.010  -0.374  0.00  0.00    +0.000 HD
BRANCH  11  13
ATOM     13  C23 UNK     0       5.586  -0.121   0.459  0.00  0.00    +0.000 A 
ATOM     14  C24 UNK     0       6.023   0.993   1.198  0.00  0.00    +0.000 A 
ATOM     15  C26 UNK     0       7.229   0.942   1.904  0.00  0.00    +0.000 A 
ATOM     16  C28 UNK     0       8.005  -0.222   1.885  0.00  0.00    +0.000 A 
ATOM     17  I1  UNK     0       9.820  -0.297   2.955  0.00  0.00    +0.000 I 
ATOM     18  C27 UNK     0       7.567  -1.340   1.168  0.00  0.00    +0.000 A 
ATOM     19  C25 UNK     0       6.360  -1.293   0.465  0.00  0.00    +0.000 A 
ENDBRANCH  11  13
ENDBRANCH   9  11
ENDBRANCH   7   9
ENDBRANCH   6   7
ENDBRANCH   5   6
BRANCH   1  20
ATOM     20  C12 UNK     0      -3.234   1.094  -2.028  0.00  0.00    +0.000 C 
BRANCH  20  21
ATOM     21  C13 UNK     0      -4.124   0.046  -1.422  0.00  0.00    +0.000 A 
ATOM     22  C14 UNK     0      -4.964   0.370  -0.344  0.00  0.00    +0.000 A 
ATOM     23  C15 UNK     0      -5.759  -0.616   0.257  0.00  0.00    +0.000 A 
ATOM     24  C20 UNK     0      -5.696  -1.937  -0.208  0.00  0.00    +0.000 A 
ATOM     25  C21 UNK     0      -4.857  -2.265  -1.276  0.00  0.00    +0.000 A 
ATOM     26  C16 UNK     0      -4.070  -1.280  -1.879  0.00  0.00    +0.000 A 
BRANCH  23  27
ATOM     27  S2  UNK     0      -6.795  -0.198   1.618  0.00  0.00    +0.000 S 
ATOM     28  O5  UNK     0      -7.894  -1.213   1.758  0.00  0.00    +0.000 OA
ATOM     29  O4  UNK     0      -7.413   1.152   1.383  0.00  0.00    +0.000 OA
BRANCH  27  30
ATOM     30  N10 UNK     0      -5.859  -0.162   3.071  0.00  0.00    +0.000 NA
ATOM     31  H40 UNK     0      -5.408  -1.099   3.163  0.00  0.00    +0.000 HD
ATOM     32  H39 UNK     0      -5.089   0.528   2.920  0.00  0.00    +0.000 HD
ENDBRANCH  27  30
ENDBRANCH  23  27
ENDBRANCH  20  21
ENDBRANCH   1  20
TORSDOF 9
