REMARK  Name = C:\Users\Maximilian\Desktop\Conformers\converted_pdb\conformers_pdb\T5342126_conf_25.pdb
REMARK  9 active torsions:
REMARK  status: ('A' for Active; 'I' for Inactive)
REMARK    1  A    between atoms: N6_1  and  C12_20
REMARK    2  A    between atoms: C18_5  and  C19_6
REMARK    3  A    between atoms: C19_6  and  N9_7
REMARK    4  A    between atoms: N9_7  and  C22_9
REMARK    5  A    between atoms: C22_9  and  N11_11
REMARK    6  A    between atoms: N11_11  and  C23_13
REMARK    7  A    between atoms: C12_20  and  C13_21
REMARK    8  A    between atoms: C15_23  and  S2_27
REMARK    9  A    between atoms: S2_27  and  N10_30
REMARK                            x       y       z     vdW  Elec       q    Type
REMARK                         _______ _______ _______ _____ _____    ______ ____
ROOT
ATOM      1  N6  UNK     0       1.710  -2.066  -1.439  0.00  0.00    +0.000 N 
ATOM      2  N7  UNK     0       1.687  -1.710  -2.714  0.00  0.00    +0.000 NA
ATOM      3  N8  UNK     0       0.436  -1.598  -3.137  0.00  0.00    +0.000 NA
ATOM      4  C17 UNK     0       0.445  -2.176  -1.001  0.00  0.00    +0.000 A 
ATOM      5  C18 UNK     0      -0.355  -1.880  -2.082  0.00  0.00    +0.000 A 
ENDROOT
BRANCH   5   6
ATOM      6  C19 UNK     0      -1.850  -1.840  -2.104  0.00  0.00    +0.000 C 
BRANCH   6   7
ATOM      7  N9  UNK     0      -2.352  -0.953  -1.055  0.00  0.00    +0.000 N 
ATOM      8  H38 UNK     0      -2.718  -1.400  -0.185  0.00  0.00    +0.000 HD
BRANCH   7   9
ATOM      9  C22 UNK     0      -2.336   0.485  -1.142  0.00  0.00    +0.000 C 
ATOM     10  S3  UNK     0      -1.512   1.249  -2.339  0.00  0.00    +0.000 S 
BRANCH   9  11
ATOM     11  N11 UNK     0      -2.917   1.279  -0.096  0.00  0.00    +0.000 N 
ATOM     12  H41 UNK     0      -2.496   2.216   0.101  0.00  0.00    +0.000 HD
BRANCH  11  13
ATOM     13  C23 UNK     0      -4.040   0.863   0.699  0.00  0.00    +0.000 A 
ATOM     14  C24 UNK     0      -4.174   1.346   2.010  0.00  0.00    +0.000 A 
ATOM     15  C26 UNK     0      -5.271   0.973   2.792  0.00  0.00    +0.000 A 
ATOM     16  C28 UNK     0      -6.253   0.128   2.266  0.00  0.00    +0.000 A 
ATOM     17  I1  UNK     0      -7.909  -0.430   3.446  0.00  0.00    +0.000 I 
ATOM     18  C27 UNK     0      -6.140  -0.339   0.953  0.00  0.00    +0.000 A 
ATOM     19  C25 UNK     0      -5.044   0.032   0.168  0.00  0.00    +0.000 A 
ENDBRANCH  11  13
ENDBRANCH   9  11
ENDBRANCH   7   9
ENDBRANCH   6   7
ENDBRANCH   5   6
BRANCH   1  20
ATOM     20  C12 UNK     0       2.921  -2.178  -0.635  0.00  0.00    +0.000 C 
BRANCH  20  21
ATOM     21  C13 UNK     0       3.171  -0.884   0.089  0.00  0.00    +0.000 A 
ATOM     22  C14 UNK     0       3.828   0.173  -0.561  0.00  0.00    +0.000 A 
ATOM     23  C15 UNK     0       4.013   1.400   0.091  0.00  0.00    +0.000 A 
ATOM     24  C20 UNK     0       3.541   1.569   1.399  0.00  0.00    +0.000 A 
ATOM     25  C21 UNK     0       2.873   0.525   2.044  0.00  0.00    +0.000 A 
ATOM     26  C16 UNK     0       2.680  -0.695   1.391  0.00  0.00    +0.000 A 
BRANCH  23  27
ATOM     27  S2  UNK     0       4.855   2.713  -0.726  0.00  0.00    +0.000 S 
ATOM     28  O5  UNK     0       4.411   4.034  -0.163  0.00  0.00    +0.000 OA
ATOM     29  O4  UNK     0       4.534   2.684  -2.195  0.00  0.00    +0.000 OA
BRANCH  27  30
ATOM     30  N10 UNK     0       6.560   2.537  -0.504  0.00  0.00    +0.000 NA
ATOM     31  H40 UNK     0       6.731   2.499   0.526  0.00  0.00    +0.000 HD
ATOM     32  H39 UNK     0       6.823   1.602  -0.888  0.00  0.00    +0.000 HD
ENDBRANCH  27  30
ENDBRANCH  23  27
ENDBRANCH  20  21
ENDBRANCH   1  20
TORSDOF 9
