REMARK  Name = C:\Users\Maximilian\Desktop\Conformers\converted_pdb\conformers_pdb\T5342126_conf_70.pdb
REMARK  9 active torsions:
REMARK  status: ('A' for Active; 'I' for Inactive)
REMARK    1  A    between atoms: N6_1  and  C12_20
REMARK    2  A    between atoms: C18_5  and  C19_6
REMARK    3  A    between atoms: C19_6  and  N9_7
REMARK    4  A    between atoms: N9_7  and  C22_9
REMARK    5  A    between atoms: C22_9  and  N11_11
REMARK    6  A    between atoms: N11_11  and  C23_13
REMARK    7  A    between atoms: C12_20  and  C13_21
REMARK    8  A    between atoms: C15_23  and  S2_27
REMARK    9  A    between atoms: S2_27  and  N10_30
REMARK                            x       y       z     vdW  Elec       q    Type
REMARK                         _______ _______ _______ _____ _____    ______ ____
ROOT
ATOM      1  N6  UNK     0      -1.092   2.169  -0.199  0.00  0.00    +0.000 N 
ATOM      2  N7  UNK     0      -0.403   2.635   0.830  0.00  0.00    +0.000 NA
ATOM      3  N8  UNK     0       0.776   2.033   0.904  0.00  0.00    +0.000 NA
ATOM      4  C17 UNK     0      -0.361   1.223  -0.813  0.00  0.00    +0.000 A 
ATOM      5  C18 UNK     0       0.817   1.140  -0.105  0.00  0.00    +0.000 A 
ENDROOT
BRANCH   5   6
ATOM      6  C19 UNK     0       1.996   0.279  -0.431  0.00  0.00    +0.000 C 
BRANCH   6   7
ATOM      7  N9  UNK     0       2.873   0.950  -1.391  0.00  0.00    +0.000 N 
ATOM      8  H38 UNK     0       2.697   1.954  -1.629  0.00  0.00    +0.000 HD
BRANCH   7   9
ATOM      9  C22 UNK     0       3.852   0.237  -2.162  0.00  0.00    +0.000 C 
ATOM     10  S3  UNK     0       4.354   0.859  -3.590  0.00  0.00    +0.000 S 
BRANCH   9  11
ATOM     11  N11 UNK     0       4.295  -1.072  -1.779  0.00  0.00    +0.000 N 
ATOM     12  H41 UNK     0       4.362  -1.803  -2.524  0.00  0.00    +0.000 HD
BRANCH  11  13
ATOM     13  C23 UNK     0       4.765  -1.399  -0.460  0.00  0.00    +0.000 A 
ATOM     14  C24 UNK     0       4.785  -2.741  -0.048  0.00  0.00    +0.000 A 
ATOM     15  C26 UNK     0       5.253  -3.083   1.224  0.00  0.00    +0.000 A 
ATOM     16  C28 UNK     0       5.716  -2.090   2.092  0.00  0.00    +0.000 A 
ATOM     17  I1  UNK     0       6.419  -2.609   4.011  0.00  0.00    +0.000 I 
ATOM     18  C27 UNK     0       5.717  -0.753   1.684  0.00  0.00    +0.000 A 
ATOM     19  C25 UNK     0       5.251  -0.407   0.412  0.00  0.00    +0.000 A 
ENDBRANCH  11  13
ENDBRANCH   9  11
ENDBRANCH   7   9
ENDBRANCH   6   7
ENDBRANCH   5   6
BRANCH   1  20
ATOM     20  C12 UNK     0      -2.454   2.570  -0.531  0.00  0.00    +0.000 C 
BRANCH  20  21
ATOM     21  C13 UNK     0      -3.434   1.677   0.177  0.00  0.00    +0.000 A 
ATOM     22  C14 UNK     0      -3.826   0.460  -0.403  0.00  0.00    +0.000 A 
ATOM     23  C15 UNK     0      -4.703  -0.399   0.274  0.00  0.00    +0.000 A 
ATOM     24  C20 UNK     0      -5.193  -0.035   1.535  0.00  0.00    +0.000 A 
ATOM     25  C21 UNK     0      -4.794   1.169   2.123  0.00  0.00    +0.000 A 
ATOM     26  C16 UNK     0      -3.912   2.019   1.451  0.00  0.00    +0.000 A 
BRANCH  23  27
ATOM     27  S2  UNK     0      -5.202  -1.915  -0.469  0.00  0.00    +0.000 S 
ATOM     28  O5  UNK     0      -5.569  -2.910   0.596  0.00  0.00    +0.000 OA
ATOM     29  O4  UNK     0      -4.070  -2.477  -1.283  0.00  0.00    +0.000 OA
BRANCH  27  30
ATOM     30  N10 UNK     0      -6.567  -1.639  -1.493  0.00  0.00    +0.000 NA
ATOM     31  H40 UNK     0      -6.284  -0.914  -2.190  0.00  0.00    +0.000 HD
ATOM     32  H39 UNK     0      -7.312  -1.210  -0.899  0.00  0.00    +0.000 HD
ENDBRANCH  27  30
ENDBRANCH  23  27
ENDBRANCH  20  21
ENDBRANCH   1  20
TORSDOF 9
