REMARK  Name = C:\Users\Maximilian\Desktop\Conformers\converted_pdb\conformers_pdb\T5342126_conf_34.pdb
REMARK  9 active torsions:
REMARK  status: ('A' for Active; 'I' for Inactive)
REMARK    1  A    between atoms: N6_1  and  C12_20
REMARK    2  A    between atoms: C18_5  and  C19_6
REMARK    3  A    between atoms: C19_6  and  N9_7
REMARK    4  A    between atoms: N9_7  and  C22_9
REMARK    5  A    between atoms: C22_9  and  N11_11
REMARK    6  A    between atoms: N11_11  and  C23_13
REMARK    7  A    between atoms: C12_20  and  C13_21
REMARK    8  A    between atoms: C15_23  and  S2_27
REMARK    9  A    between atoms: S2_27  and  N10_30
REMARK                            x       y       z     vdW  Elec       q    Type
REMARK                         _______ _______ _______ _____ _____    ______ ____
ROOT
ATOM      1  N6  UNK     0       1.550  -2.044  -1.091  0.00  0.00    +0.000 N 
ATOM      2  N7  UNK     0       0.857  -2.678  -0.157  0.00  0.00    +0.000 NA
ATOM      3  N8  UNK     0      -0.268  -3.157  -0.667  0.00  0.00    +0.000 NA
ATOM      4  C17 UNK     0       0.861  -2.089  -2.242  0.00  0.00    +0.000 A 
ATOM      5  C18 UNK     0      -0.283  -2.803  -1.969  0.00  0.00    +0.000 A 
ENDROOT
BRANCH   5   6
ATOM      6  C19 UNK     0      -1.425  -3.049  -2.904  0.00  0.00    +0.000 C 
BRANCH   6   7
ATOM      7  N9  UNK     0      -2.013  -1.781  -3.332  0.00  0.00    +0.000 N 
ATOM      8  H38 UNK     0      -1.951  -1.528  -4.345  0.00  0.00    +0.000 HD
BRANCH   7   9
ATOM      9  C22 UNK     0      -2.567  -0.829  -2.412  0.00  0.00    +0.000 C 
ATOM     10  S3  UNK     0      -3.023   0.645  -2.971  0.00  0.00    +0.000 S 
BRANCH   9  11
ATOM     11  N11 UNK     0      -2.871  -1.214  -1.062  0.00  0.00    +0.000 N 
ATOM     12  H41 UNK     0      -3.227  -2.182  -0.901  0.00  0.00    +0.000 HD
BRANCH  11  13
ATOM     13  C23 UNK     0      -2.739  -0.345   0.075  0.00  0.00    +0.000 A 
ATOM     14  C24 UNK     0      -3.537  -0.567   1.207  0.00  0.00    +0.000 A 
ATOM     15  C26 UNK     0      -3.420   0.259   2.328  0.00  0.00    +0.000 A 
ATOM     16  C28 UNK     0      -2.498   1.309   2.333  0.00  0.00    +0.000 A 
ATOM     17  I1  UNK     0      -2.342   2.565   4.018  0.00  0.00    +0.000 I 
ATOM     18  C27 UNK     0      -1.682   1.523   1.218  0.00  0.00    +0.000 A 
ATOM     19  C25 UNK     0      -1.790   0.694   0.098  0.00  0.00    +0.000 A 
ENDBRANCH  11  13
ENDBRANCH   9  11
ENDBRANCH   7   9
ENDBRANCH   6   7
ENDBRANCH   5   6
BRANCH   1  20
ATOM     20  C12 UNK     0       2.778  -1.300  -0.842  0.00  0.00    +0.000 C 
BRANCH  20  21
ATOM     21  C13 UNK     0       2.446   0.105  -0.425  0.00  0.00    +0.000 A 
ATOM     22  C14 UNK     0       2.327   0.432   0.935  0.00  0.00    +0.000 A 
ATOM     23  C15 UNK     0       1.989   1.735   1.324  0.00  0.00    +0.000 A 
ATOM     24  C20 UNK     0       1.767   2.715   0.347  0.00  0.00    +0.000 A 
ATOM     25  C21 UNK     0       1.859   2.388  -1.007  0.00  0.00    +0.000 A 
ATOM     26  C16 UNK     0       2.192   1.087  -1.394  0.00  0.00    +0.000 A 
BRANCH  23  27
ATOM     27  S2  UNK     0       1.862   2.131   3.034  0.00  0.00    +0.000 S 
ATOM     28  O5  UNK     0       1.144   1.023   3.752  0.00  0.00    +0.000 OA
ATOM     29  O4  UNK     0       1.087   3.406   3.211  0.00  0.00    +0.000 OA
BRANCH  27  30
ATOM     30  N10 UNK     0       3.445   2.328   3.698  0.00  0.00    +0.000 NA
ATOM     31  H40 UNK     0       3.926   1.404   3.622  0.00  0.00    +0.000 HD
ATOM     32  H39 UNK     0       3.325   2.522   4.717  0.00  0.00    +0.000 HD
ENDBRANCH  27  30
ENDBRANCH  23  27
ENDBRANCH  20  21
ENDBRANCH   1  20
TORSDOF 9
