REMARK  Name = C:\Users\Maximilian\Desktop\Conformers\converted_pdb\conformers_pdb\T5342126_conf_57.pdb
REMARK  9 active torsions:
REMARK  status: ('A' for Active; 'I' for Inactive)
REMARK    1  A    between atoms: N6_1  and  C12_20
REMARK    2  A    between atoms: C18_5  and  C19_6
REMARK    3  A    between atoms: C19_6  and  N9_7
REMARK    4  A    between atoms: N9_7  and  C22_9
REMARK    5  A    between atoms: C22_9  and  N11_11
REMARK    6  A    between atoms: N11_11  and  C23_13
REMARK    7  A    between atoms: C12_20  and  C13_21
REMARK    8  A    between atoms: C15_23  and  S2_27
REMARK    9  A    between atoms: S2_27  and  N10_30
REMARK                            x       y       z     vdW  Elec       q    Type
REMARK                         _______ _______ _______ _____ _____    ______ ____
ROOT
ATOM      1  N6  UNK     0      -0.845  -1.473  -0.725  0.00  0.00    +0.000 N 
ATOM      2  N7  UNK     0      -0.816  -2.796  -0.720  0.00  0.00    +0.000 NA
ATOM      3  N8  UNK     0      -0.058  -3.235   0.275  0.00  0.00    +0.000 NA
ATOM      4  C17 UNK     0      -0.104  -1.023   0.301  0.00  0.00    +0.000 A 
ATOM      5  C18 UNK     0       0.392  -2.144   0.927  0.00  0.00    +0.000 A 
ENDROOT
BRANCH   5   6
ATOM      6  C19 UNK     0       1.319  -2.173   2.100  0.00  0.00    +0.000 C 
BRANCH   6   7
ATOM      7  N9  UNK     0       2.636  -1.671   1.713  0.00  0.00    +0.000 N 
ATOM      8  H38 UNK     0       2.918  -0.729   2.065  0.00  0.00    +0.000 HD
BRANCH   7   9
ATOM      9  C22 UNK     0       3.534  -2.376   0.836  0.00  0.00    +0.000 C 
ATOM     10  S3  UNK     0       3.402  -3.999   0.631  0.00  0.00    +0.000 S 
BRANCH   9  11
ATOM     11  N11 UNK     0       4.662  -1.699   0.264  0.00  0.00    +0.000 N 
ATOM     12  H41 UNK     0       5.531  -2.252   0.085  0.00  0.00    +0.000 HD
BRANCH  11  13
ATOM     13  C23 UNK     0       4.664  -0.302  -0.075  0.00  0.00    +0.000 A 
ATOM     14  C24 UNK     0       3.488   0.352  -0.484  0.00  0.00    +0.000 A 
ATOM     15  C26 UNK     0       3.517   1.707  -0.829  0.00  0.00    +0.000 A 
ATOM     16  C28 UNK     0       4.720   2.416  -0.784  0.00  0.00    +0.000 A 
ATOM     17  I1  UNK     0       4.762   4.459  -1.306  0.00  0.00    +0.000 I 
ATOM     18  C27 UNK     0       5.898   1.767  -0.401  0.00  0.00    +0.000 A 
ATOM     19  C25 UNK     0       5.872   0.412  -0.055  0.00  0.00    +0.000 A 
ENDBRANCH  11  13
ENDBRANCH   9  11
ENDBRANCH   7   9
ENDBRANCH   6   7
ENDBRANCH   5   6
BRANCH   1  20
ATOM     20  C12 UNK     0      -1.625  -0.666  -1.656  0.00  0.00    +0.000 C 
BRANCH  20  21
ATOM     21  C13 UNK     0      -2.963  -0.343  -1.053  0.00  0.00    +0.000 A 
ATOM     22  C14 UNK     0      -3.118   0.795  -0.245  0.00  0.00    +0.000 A 
ATOM     23  C15 UNK     0      -4.353   1.074   0.357  0.00  0.00    +0.000 A 
ATOM     24  C20 UNK     0      -5.438   0.213   0.147  0.00  0.00    +0.000 A 
ATOM     25  C21 UNK     0      -5.284  -0.929  -0.643  0.00  0.00    +0.000 A 
ATOM     26  C16 UNK     0      -4.050  -1.212  -1.236  0.00  0.00    +0.000 A 
BRANCH  23  27
ATOM     27  S2  UNK     0      -4.540   2.515   1.353  0.00  0.00    +0.000 S 
ATOM     28  O5  UNK     0      -3.271   2.772   2.115  0.00  0.00    +0.000 OA
ATOM     29  O4  UNK     0      -5.660   2.316   2.336  0.00  0.00    +0.000 OA
BRANCH  27  30
ATOM     30  N10 UNK     0      -4.895   3.874   0.345  0.00  0.00    +0.000 NA
ATOM     31  H40 UNK     0      -4.113   3.956  -0.343  0.00  0.00    +0.000 HD
ATOM     32  H39 UNK     0      -5.752   3.633  -0.201  0.00  0.00    +0.000 HD
ENDBRANCH  27  30
ENDBRANCH  23  27
ENDBRANCH  20  21
ENDBRANCH   1  20
TORSDOF 9
