REMARK  Name = C:\Users\Maximilian\Desktop\Conformers\converted_pdb\conformers_pdb\T5342126_conf_37.pdb
REMARK  9 active torsions:
REMARK  status: ('A' for Active; 'I' for Inactive)
REMARK    1  A    between atoms: N6_1  and  C12_20
REMARK    2  A    between atoms: C18_5  and  C19_6
REMARK    3  A    between atoms: C19_6  and  N9_7
REMARK    4  A    between atoms: N9_7  and  C22_9
REMARK    5  A    between atoms: C22_9  and  N11_11
REMARK    6  A    between atoms: N11_11  and  C23_13
REMARK    7  A    between atoms: C12_20  and  C13_21
REMARK    8  A    between atoms: C15_23  and  S2_27
REMARK    9  A    between atoms: S2_27  and  N10_30
REMARK                            x       y       z     vdW  Elec       q    Type
REMARK                         _______ _______ _______ _____ _____    ______ ____
ROOT
ATOM      1  N6  UNK     0       1.338  -1.644  -0.098  0.00  0.00    +0.000 N 
ATOM      2  N7  UNK     0       0.791  -1.218  -1.225  0.00  0.00    +0.000 NA
ATOM      3  N8  UNK     0      -0.155  -0.326  -0.968  0.00  0.00    +0.000 NA
ATOM      4  C17 UNK     0       0.756  -1.006   0.931  0.00  0.00    +0.000 A 
ATOM      5  C18 UNK     0      -0.196  -0.182   0.372  0.00  0.00    +0.000 A 
ENDROOT
BRANCH   5   6
ATOM      6  C19 UNK     0      -1.109   0.753   1.099  0.00  0.00    +0.000 C 
BRANCH   6   7
ATOM      7  N9  UNK     0      -2.503   0.460   0.767  0.00  0.00    +0.000 N 
ATOM      8  H38 UNK     0      -2.962   1.065   0.050  0.00  0.00    +0.000 HD
BRANCH   7   9
ATOM      9  C22 UNK     0      -3.261  -0.613   1.358  0.00  0.00    +0.000 C 
ATOM     10  S3  UNK     0      -2.519  -1.783   2.239  0.00  0.00    +0.000 S 
BRANCH   9  11
ATOM     11  N11 UNK     0      -4.658  -0.759   1.063  0.00  0.00    +0.000 N 
ATOM     12  H41 UNK     0      -5.059  -1.724   1.053  0.00  0.00    +0.000 HD
BRANCH  11  13
ATOM     13  C23 UNK     0      -5.538   0.342   0.780  0.00  0.00    +0.000 A 
ATOM     14  C24 UNK     0      -6.659   0.135  -0.040  0.00  0.00    +0.000 A 
ATOM     15  C26 UNK     0      -7.542   1.186  -0.308  0.00  0.00    +0.000 A 
ATOM     16  C28 UNK     0      -7.322   2.448   0.252  0.00  0.00    +0.000 A 
ATOM     17  I1  UNK     0      -8.656   4.030  -0.153  0.00  0.00    +0.000 I 
ATOM     18  C27 UNK     0      -6.221   2.657   1.087  0.00  0.00    +0.000 A 
ATOM     19  C25 UNK     0      -5.335   1.609   1.358  0.00  0.00    +0.000 A 
ENDBRANCH  11  13
ENDBRANCH   9  11
ENDBRANCH   7   9
ENDBRANCH   6   7
ENDBRANCH   5   6
BRANCH   1  20
ATOM     20  C12 UNK     0       2.459  -2.574  -0.025  0.00  0.00    +0.000 C 
BRANCH  20  21
ATOM     21  C13 UNK     0       3.755  -1.813  -0.031  0.00  0.00    +0.000 A 
ATOM     22  C14 UNK     0       4.344  -1.432  -1.247  0.00  0.00    +0.000 A 
ATOM     23  C15 UNK     0       5.530  -0.685  -1.257  0.00  0.00    +0.000 A 
ATOM     24  C20 UNK     0       6.116  -0.298  -0.044  0.00  0.00    +0.000 A 
ATOM     25  C21 UNK     0       5.525  -0.662   1.168  0.00  0.00    +0.000 A 
ATOM     26  C16 UNK     0       4.346  -1.413   1.177  0.00  0.00    +0.000 A 
BRANCH  23  27
ATOM     27  S2  UNK     0       6.254  -0.199  -2.787  0.00  0.00    +0.000 S 
ATOM     28  O5  UNK     0       6.013  -1.262  -3.822  0.00  0.00    +0.000 OA
ATOM     29  O4  UNK     0       7.737  -0.021  -2.617  0.00  0.00    +0.000 OA
BRANCH  27  30
ATOM     30  N10 UNK     0       5.552   1.290  -3.314  0.00  0.00    +0.000 NA
ATOM     31  H40 UNK     0       5.704   1.985  -2.550  0.00  0.00    +0.000 HD
ATOM     32  H39 UNK     0       4.521   1.134  -3.379  0.00  0.00    +0.000 HD
ENDBRANCH  27  30
ENDBRANCH  23  27
ENDBRANCH  20  21
ENDBRANCH   1  20
TORSDOF 9
