REMARK  Name = C:\Users\Maximilian\Desktop\Conformers\converted_pdb\conformers_pdb\T5342126_conf_6.pdb
REMARK  9 active torsions:
REMARK  status: ('A' for Active; 'I' for Inactive)
REMARK    1  A    between atoms: N6_1  and  C12_20
REMARK    2  A    between atoms: C18_5  and  C19_6
REMARK    3  A    between atoms: C19_6  and  N9_7
REMARK    4  A    between atoms: N9_7  and  C22_9
REMARK    5  A    between atoms: C22_9  and  N11_11
REMARK    6  A    between atoms: N11_11  and  C23_13
REMARK    7  A    between atoms: C12_20  and  C13_21
REMARK    8  A    between atoms: C15_23  and  S2_27
REMARK    9  A    between atoms: S2_27  and  N10_30
REMARK                            x       y       z     vdW  Elec       q    Type
REMARK                         _______ _______ _______ _____ _____    ______ ____
ROOT
ATOM      1  N6  UNK     0      -1.816  -1.395  -0.950  0.00  0.00    +0.000 N 
ATOM      2  N7  UNK     0      -1.827  -0.844  -2.153  0.00  0.00    +0.000 NA
ATOM      3  N8  UNK     0      -0.665  -0.255  -2.399  0.00  0.00    +0.000 NA
ATOM      4  C17 UNK     0      -0.626  -1.152  -0.376  0.00  0.00    +0.000 A 
ATOM      5  C18 UNK     0       0.094  -0.425  -1.297  0.00  0.00    +0.000 A 
ENDROOT
BRANCH   5   6
ATOM      6  C19 UNK     0       1.511   0.035  -1.162  0.00  0.00    +0.000 C 
BRANCH   6   7
ATOM      7  N9  UNK     0       2.437  -1.022  -1.567  0.00  0.00    +0.000 N 
ATOM      8  H38 UNK     0       2.059  -1.908  -1.975  0.00  0.00    +0.000 HD
BRANCH   7   9
ATOM      9  C22 UNK     0       3.853  -0.913  -1.364  0.00  0.00    +0.000 C 
ATOM     10  S3  UNK     0       4.816  -2.163  -1.820  0.00  0.00    +0.000 S 
BRANCH   9  11
ATOM     11  N11 UNK     0       4.436   0.331  -0.937  0.00  0.00    +0.000 N 
ATOM     12  H41 UNK     0       3.981   1.218  -1.247  0.00  0.00    +0.000 HD
BRANCH  11  13
ATOM     13  C23 UNK     0       5.639   0.432  -0.154  0.00  0.00    +0.000 A 
ATOM     14  C24 UNK     0       5.981  -0.551   0.791  0.00  0.00    +0.000 A 
ATOM     15  C26 UNK     0       7.142  -0.417   1.560  0.00  0.00    +0.000 A 
ATOM     16  C28 UNK     0       7.962   0.704   1.403  0.00  0.00    +0.000 A 
ATOM     17  I1  UNK     0       9.710   0.906   2.565  0.00  0.00    +0.000 I 
ATOM     18  C27 UNK     0       7.616   1.697   0.480  0.00  0.00    +0.000 A 
ATOM     19  C25 UNK     0       6.456   1.565  -0.289  0.00  0.00    +0.000 A 
ENDBRANCH  11  13
ENDBRANCH   9  11
ENDBRANCH   7   9
ENDBRANCH   6   7
ENDBRANCH   5   6
BRANCH   1  20
ATOM     20  C12 UNK     0      -2.956  -2.071  -0.341  0.00  0.00    +0.000 C 
BRANCH  20  21
ATOM     21  C13 UNK     0      -3.772  -1.084   0.446  0.00  0.00    +0.000 A 
ATOM     22  C14 UNK     0      -4.768  -0.325  -0.190  0.00  0.00    +0.000 A 
ATOM     23  C15 UNK     0      -5.501   0.629   0.530  0.00  0.00    +0.000 A 
ATOM     24  C20 UNK     0      -5.237   0.822   1.892  0.00  0.00    +0.000 A 
ATOM     25  C21 UNK     0      -4.236   0.080   2.525  0.00  0.00    +0.000 A 
ATOM     26  C16 UNK     0      -3.500  -0.864   1.805  0.00  0.00    +0.000 A 
BRANCH  23  27
ATOM     27  S2  UNK     0      -6.761   1.560  -0.272  0.00  0.00    +0.000 S 
ATOM     28  O5  UNK     0      -6.356   1.842  -1.693  0.00  0.00    +0.000 OA
ATOM     29  O4  UNK     0      -6.962   2.868   0.440  0.00  0.00    +0.000 OA
BRANCH  27  30
ATOM     30  N10 UNK     0      -8.238   0.662  -0.254  0.00  0.00    +0.000 NA
ATOM     31  H40 UNK     0      -8.940   1.218  -0.793  0.00  0.00    +0.000 HD
ATOM     32  H39 UNK     0      -8.068  -0.215  -0.796  0.00  0.00    +0.000 HD
ENDBRANCH  27  30
ENDBRANCH  23  27
ENDBRANCH  20  21
ENDBRANCH   1  20
TORSDOF 9
