REMARK  Name = C:\Users\Maximilian\Desktop\Conformers\converted_pdb\conformers_pdb\T5342126_conf_48.pdb
REMARK  9 active torsions:
REMARK  status: ('A' for Active; 'I' for Inactive)
REMARK    1  A    between atoms: N6_1  and  C12_20
REMARK    2  A    between atoms: C18_5  and  C19_6
REMARK    3  A    between atoms: C19_6  and  N9_7
REMARK    4  A    between atoms: N9_7  and  C22_9
REMARK    5  A    between atoms: C22_9  and  N11_11
REMARK    6  A    between atoms: N11_11  and  C23_13
REMARK    7  A    between atoms: C12_20  and  C13_21
REMARK    8  A    between atoms: C15_23  and  S2_27
REMARK    9  A    between atoms: S2_27  and  N10_30
REMARK                            x       y       z     vdW  Elec       q    Type
REMARK                         _______ _______ _______ _____ _____    ______ ____
ROOT
ATOM      1  N6  UNK     0       0.213   0.155   0.321  0.00  0.00    +0.000 N 
ATOM      2  N7  UNK     0       0.677   1.201   0.988  0.00  0.00    +0.000 NA
ATOM      3  N8  UNK     0       0.808   2.241   0.176  0.00  0.00    +0.000 NA
ATOM      4  C17 UNK     0       0.010   0.515  -0.957  0.00  0.00    +0.000 A 
ATOM      5  C18 UNK     0       0.406   1.832  -1.045  0.00  0.00    +0.000 A 
ENDROOT
BRANCH   5   6
ATOM      6  C19 UNK     0       0.446   2.680  -2.279  0.00  0.00    +0.000 C 
BRANCH   6   7
ATOM      7  N9  UNK     0       1.089   1.966  -3.382  0.00  0.00    +0.000 N 
ATOM      8  H38 UNK     0       0.523   1.767  -4.238  0.00  0.00    +0.000 HD
BRANCH   7   9
ATOM      9  C22 UNK     0       2.452   1.518  -3.331  0.00  0.00    +0.000 C 
ATOM     10  S3  UNK     0       3.100   0.730  -4.612  0.00  0.00    +0.000 S 
BRANCH   9  11
ATOM     11  N11 UNK     0       3.267   1.793  -2.185  0.00  0.00    +0.000 N 
ATOM     12  H41 UNK     0       3.480   2.795  -1.982  0.00  0.00    +0.000 HD
BRANCH  11  13
ATOM     13  C23 UNK     0       3.592   0.799  -1.194  0.00  0.00    +0.000 A 
ATOM     14  C24 UNK     0       4.287   1.186  -0.037  0.00  0.00    +0.000 A 
ATOM     15  C26 UNK     0       4.555   0.258   0.974  0.00  0.00    +0.000 A 
ATOM     16  C28 UNK     0       4.137  -1.069   0.837  0.00  0.00    +0.000 A 
ATOM     17  I1  UNK     0       4.521  -2.463   2.373  0.00  0.00    +0.000 I 
ATOM     18  C27 UNK     0       3.453  -1.468  -0.314  0.00  0.00    +0.000 A 
ATOM     19  C25 UNK     0       3.179  -0.542  -1.325  0.00  0.00    +0.000 A 
ENDBRANCH  11  13
ENDBRANCH   9  11
ENDBRANCH   7   9
ENDBRANCH   6   7
ENDBRANCH   5   6
BRANCH   1  20
ATOM     20  C12 UNK     0      -0.054  -1.149   0.914  0.00  0.00    +0.000 C 
BRANCH  20  21
ATOM     21  C13 UNK     0      -1.437  -1.169   1.501  0.00  0.00    +0.000 A 
ATOM     22  C14 UNK     0      -2.547  -1.423   0.680  0.00  0.00    +0.000 A 
ATOM     23  C15 UNK     0      -3.843  -1.407   1.215  0.00  0.00    +0.000 A 
ATOM     24  C20 UNK     0      -4.029  -1.115   2.573  0.00  0.00    +0.000 A 
ATOM     25  C21 UNK     0      -2.927  -0.847   3.390  0.00  0.00    +0.000 A 
ATOM     26  C16 UNK     0      -1.635  -0.868   2.858  0.00  0.00    +0.000 A 
BRANCH  23  27
ATOM     27  S2  UNK     0      -5.226  -1.712   0.169  0.00  0.00    +0.000 S 
ATOM     28  O5  UNK     0      -6.414  -2.121   0.994  0.00  0.00    +0.000 OA
ATOM     29  O4  UNK     0      -4.899  -2.825  -0.787  0.00  0.00    +0.000 OA
BRANCH  27  30
ATOM     30  N10 UNK     0      -5.612  -0.279  -0.718  0.00  0.00    +0.000 NA
ATOM     31  H40 UNK     0      -4.773  -0.042  -1.294  0.00  0.00    +0.000 HD
ATOM     32  H39 UNK     0      -5.725   0.490  -0.020  0.00  0.00    +0.000 HD
ENDBRANCH  27  30
ENDBRANCH  23  27
ENDBRANCH  20  21
ENDBRANCH   1  20
TORSDOF 9
