REMARK  Name = C:\Users\Maximilian\Desktop\Conformers\converted_pdb\conformers_pdb\T5342126_conf_66.pdb
REMARK  9 active torsions:
REMARK  status: ('A' for Active; 'I' for Inactive)
REMARK    1  A    between atoms: N6_1  and  C12_20
REMARK    2  A    between atoms: C18_5  and  C19_6
REMARK    3  A    between atoms: C19_6  and  N9_7
REMARK    4  A    between atoms: N9_7  and  C22_9
REMARK    5  A    between atoms: C22_9  and  N11_11
REMARK    6  A    between atoms: N11_11  and  C23_13
REMARK    7  A    between atoms: C12_20  and  C13_21
REMARK    8  A    between atoms: C15_23  and  S2_27
REMARK    9  A    between atoms: S2_27  and  N10_30
REMARK                            x       y       z     vdW  Elec       q    Type
REMARK                         _______ _______ _______ _____ _____    ______ ____
ROOT
ATOM      1  N6  UNK     0      -1.193  -1.833  -0.924  0.00  0.00    +0.000 N 
ATOM      2  N7  UNK     0      -1.356  -2.547   0.179  0.00  0.00    +0.000 NA
ATOM      3  N8  UNK     0      -0.285  -2.444   0.955  0.00  0.00    +0.000 NA
ATOM      4  C17 UNK     0       0.007  -1.231  -0.873  0.00  0.00    +0.000 A 
ATOM      5  C18 UNK     0       0.572  -1.618   0.322  0.00  0.00    +0.000 A 
ENDROOT
BRANCH   5   6
ATOM      6  C19 UNK     0       1.943  -1.277   0.814  0.00  0.00    +0.000 C 
BRANCH   6   7
ATOM      7  N9  UNK     0       2.920  -2.256   0.332  0.00  0.00    +0.000 N 
ATOM      8  H38 UNK     0       2.614  -2.995  -0.343  0.00  0.00    +0.000 HD
BRANCH   7   9
ATOM      9  C22 UNK     0       4.236  -2.362   0.895  0.00  0.00    +0.000 C 
ATOM     10  S3  UNK     0       5.029  -3.792   0.811  0.00  0.00    +0.000 S 
BRANCH   9  11
ATOM     11  N11 UNK     0       4.815  -1.286   1.646  0.00  0.00    +0.000 N 
ATOM     12  H41 UNK     0       5.302  -1.524   2.541  0.00  0.00    +0.000 HD
BRANCH  11  13
ATOM     13  C23 UNK     0       4.891   0.067   1.169  0.00  0.00    +0.000 A 
ATOM     14  C24 UNK     0       5.111   1.109   2.084  0.00  0.00    +0.000 A 
ATOM     15  C26 UNK     0       5.205   2.431   1.642  0.00  0.00    +0.000 A 
ATOM     16  C28 UNK     0       5.092   2.725   0.280  0.00  0.00    +0.000 A 
ATOM     17  I1  UNK     0       5.231   4.721  -0.385  0.00  0.00    +0.000 I 
ATOM     18  C27 UNK     0       4.891   1.693  -0.642  0.00  0.00    +0.000 A 
ATOM     19  C25 UNK     0       4.797   0.369  -0.203  0.00  0.00    +0.000 A 
ENDBRANCH  11  13
ENDBRANCH   9  11
ENDBRANCH   7   9
ENDBRANCH   6   7
ENDBRANCH   5   6
BRANCH   1  20
ATOM     20  C12 UNK     0      -2.199  -1.686  -1.968  0.00  0.00    +0.000 C 
BRANCH  20  21
ATOM     21  C13 UNK     0      -3.051  -0.478  -1.690  0.00  0.00    +0.000 A 
ATOM     22  C14 UNK     0      -4.175  -0.584  -0.855  0.00  0.00    +0.000 A 
ATOM     23  C15 UNK     0      -4.948   0.548  -0.561  0.00  0.00    +0.000 A 
ATOM     24  C20 UNK     0      -4.595   1.790  -1.105  0.00  0.00    +0.000 A 
ATOM     25  C21 UNK     0      -3.466   1.903  -1.921  0.00  0.00    +0.000 A 
ATOM     26  C16 UNK     0      -2.692   0.776  -2.208  0.00  0.00    +0.000 A 
BRANCH  23  27
ATOM     27  S2  UNK     0      -6.367   0.401   0.472  0.00  0.00    +0.000 S 
ATOM     28  O5  UNK     0      -6.109  -0.627   1.540  0.00  0.00    +0.000 OA
ATOM     29  O4  UNK     0      -7.545  -0.025  -0.359  0.00  0.00    +0.000 OA
BRANCH  27  30
ATOM     30  N10 UNK     0      -6.714   1.918   1.228  0.00  0.00    +0.000 NA
ATOM     31  H40 UNK     0      -7.510   1.757   1.885  0.00  0.00    +0.000 HD
ATOM     32  H39 UNK     0      -5.886   2.169   1.814  0.00  0.00    +0.000 HD
ENDBRANCH  27  30
ENDBRANCH  23  27
ENDBRANCH  20  21
ENDBRANCH   1  20
TORSDOF 9
