REMARK  Name = C:\Users\Maximilian\Desktop\Conformers\converted_pdb\conformers_pdb\T5342126_conf_47.pdb
REMARK  9 active torsions:
REMARK  status: ('A' for Active; 'I' for Inactive)
REMARK    1  A    between atoms: N6_1  and  C12_20
REMARK    2  A    between atoms: C18_5  and  C19_6
REMARK    3  A    between atoms: C19_6  and  N9_7
REMARK    4  A    between atoms: N9_7  and  C22_9
REMARK    5  A    between atoms: C22_9  and  N11_11
REMARK    6  A    between atoms: N11_11  and  C23_13
REMARK    7  A    between atoms: C12_20  and  C13_21
REMARK    8  A    between atoms: C15_23  and  S2_27
REMARK    9  A    between atoms: S2_27  and  N10_30
REMARK                            x       y       z     vdW  Elec       q    Type
REMARK                         _______ _______ _______ _____ _____    ______ ____
ROOT
ATOM      1  N6  UNK     0       0.699   0.188   1.784  0.00  0.00    +0.000 N 
ATOM      2  N7  UNK     0       0.639   1.099   2.743  0.00  0.00    +0.000 NA
ATOM      3  N8  UNK     0       0.008   2.181   2.310  0.00  0.00    +0.000 NA
ATOM      4  C17 UNK     0       0.111   0.684   0.683  0.00  0.00    +0.000 A 
ATOM      5  C18 UNK     0      -0.327   1.944   1.025  0.00  0.00    +0.000 A 
ENDROOT
BRANCH   5   6
ATOM      6  C19 UNK     0      -1.089   2.889   0.153  0.00  0.00    +0.000 C 
BRANCH   6   7
ATOM      7  N9  UNK     0      -2.429   2.366  -0.106  0.00  0.00    +0.000 N 
ATOM      8  H38 UNK     0      -2.632   2.007  -1.066  0.00  0.00    +0.000 HD
BRANCH   7   9
ATOM      9  C22 UNK     0      -3.458   2.271   0.896  0.00  0.00    +0.000 C 
ATOM     10  S3  UNK     0      -3.404   3.207   2.244  0.00  0.00    +0.000 S 
BRANCH   9  11
ATOM     11  N11 UNK     0      -4.633   1.484   0.651  0.00  0.00    +0.000 N 
ATOM     12  H41 UNK     0      -5.534   1.795   1.080  0.00  0.00    +0.000 HD
BRANCH  11  13
ATOM     13  C23 UNK     0      -4.639   0.292  -0.152  0.00  0.00    +0.000 A 
ATOM     14  C24 UNK     0      -3.510  -0.544  -0.228  0.00  0.00    +0.000 A 
ATOM     15  C26 UNK     0      -3.545  -1.709  -0.999  0.00  0.00    +0.000 A 
ATOM     16  C28 UNK     0      -4.710  -2.059  -1.688  0.00  0.00    +0.000 A 
ATOM     17  I1  UNK     0      -4.760  -3.819  -2.850  0.00  0.00    +0.000 I 
ATOM     18  C27 UNK     0      -5.843  -1.246  -1.599  0.00  0.00    +0.000 A 
ATOM     19  C25 UNK     0      -5.811  -0.079  -0.828  0.00  0.00    +0.000 A 
ENDBRANCH  11  13
ENDBRANCH   9  11
ENDBRANCH   7   9
ENDBRANCH   6   7
ENDBRANCH   5   6
BRANCH   1  20
ATOM     20  C12 UNK     0       1.372  -1.100   1.908  0.00  0.00    +0.000 C 
BRANCH  20  21
ATOM     21  C13 UNK     0       2.782  -0.989   1.399  0.00  0.00    +0.000 A 
ATOM     22  C14 UNK     0       3.062  -1.204   0.040  0.00  0.00    +0.000 A 
ATOM     23  C15 UNK     0       4.369  -1.059  -0.446  0.00  0.00    +0.000 A 
ATOM     24  C20 UNK     0       5.395  -0.676   0.428  0.00  0.00    +0.000 A 
ATOM     25  C21 UNK     0       5.119  -0.448   1.779  0.00  0.00    +0.000 A 
ATOM     26  C16 UNK     0       3.817  -0.598   2.263  0.00  0.00    +0.000 A 
BRANCH  23  27
ATOM     27  S2  UNK     0       4.709  -1.316  -2.154  0.00  0.00    +0.000 S 
ATOM     28  O5  UNK     0       3.791  -2.373  -2.701  0.00  0.00    +0.000 OA
ATOM     29  O4  UNK     0       6.130  -1.773  -2.328  0.00  0.00    +0.000 OA
BRANCH  27  30
ATOM     30  N10 UNK     0       4.465   0.163  -3.016  0.00  0.00    +0.000 NA
ATOM     31  H40 UNK     0       5.147   0.855  -2.633  0.00  0.00    +0.000 HD
ATOM     32  H39 UNK     0       4.739  -0.014  -4.008  0.00  0.00    +0.000 HD
ENDBRANCH  27  30
ENDBRANCH  23  27
ENDBRANCH  20  21
ENDBRANCH   1  20
TORSDOF 9
