REMARK  Name = C:\Users\Maximilian\Desktop\Conformers\converted_pdb\conformers_pdb\T5342126_conf_49.pdb
REMARK  9 active torsions:
REMARK  status: ('A' for Active; 'I' for Inactive)
REMARK    1  A    between atoms: N6_1  and  C12_20
REMARK    2  A    between atoms: C18_5  and  C19_6
REMARK    3  A    between atoms: C19_6  and  N9_7
REMARK    4  A    between atoms: N9_7  and  C22_9
REMARK    5  A    between atoms: C22_9  and  N11_11
REMARK    6  A    between atoms: N11_11  and  C23_13
REMARK    7  A    between atoms: C12_20  and  C13_21
REMARK    8  A    between atoms: C15_23  and  S2_27
REMARK    9  A    between atoms: S2_27  and  N10_30
REMARK                            x       y       z     vdW  Elec       q    Type
REMARK                         _______ _______ _______ _____ _____    ______ ____
ROOT
ATOM      1  N6  UNK     0       1.522   1.048  -0.164  0.00  0.00    +0.000 N 
ATOM      2  N7  UNK     0       1.183   0.329  -1.222  0.00  0.00    +0.000 NA
ATOM      3  N8  UNK     0       0.011  -0.259  -1.023  0.00  0.00    +0.000 NA
ATOM      4  C17 UNK     0       0.562   0.919   0.768  0.00  0.00    +0.000 A 
ATOM      5  C18 UNK     0      -0.395   0.099   0.212  0.00  0.00    +0.000 A 
ENDROOT
BRANCH   5   6
ATOM      6  C19 UNK     0      -1.664  -0.361   0.855  0.00  0.00    +0.000 C 
BRANCH   6   7
ATOM      7  N9  UNK     0      -2.814   0.012   0.032  0.00  0.00    +0.000 N 
ATOM      8  H38 UNK     0      -3.220  -0.725  -0.587  0.00  0.00    +0.000 HD
BRANCH   7   9
ATOM      9  C22 UNK     0      -3.398   1.328   0.018  0.00  0.00    +0.000 C 
ATOM     10  S3  UNK     0      -2.625   2.601   0.709  0.00  0.00    +0.000 S 
BRANCH   9  11
ATOM     11  N11 UNK     0      -4.598   1.579  -0.729  0.00  0.00    +0.000 N 
ATOM     12  H41 UNK     0      -4.730   2.530  -1.142  0.00  0.00    +0.000 HD
BRANCH  11  13
ATOM     13  C23 UNK     0      -5.629   0.601  -0.944  0.00  0.00    +0.000 A 
ATOM     14  C24 UNK     0      -5.899  -0.400   0.008  0.00  0.00    +0.000 A 
ATOM     15  C26 UNK     0      -6.924  -1.325  -0.212  0.00  0.00    +0.000 A 
ATOM     16  C28 UNK     0      -7.698  -1.251  -1.375  0.00  0.00    +0.000 A 
ATOM     17  I1  UNK     0      -9.246  -2.646  -1.703  0.00  0.00    +0.000 I 
ATOM     18  C27 UNK     0      -7.451  -0.245  -2.314  0.00  0.00    +0.000 A 
ATOM     19  C25 UNK     0      -6.426   0.681  -2.097  0.00  0.00    +0.000 A 
ENDBRANCH  11  13
ENDBRANCH   9  11
ENDBRANCH   7   9
ENDBRANCH   6   7
ENDBRANCH   5   6
BRANCH   1  20
ATOM     20  C12 UNK     0       2.783   1.765  -0.022  0.00  0.00    +0.000 C 
BRANCH  20  21
ATOM     21  C13 UNK     0       3.806   0.873   0.624  0.00  0.00    +0.000 A 
ATOM     22  C14 UNK     0       4.573  -0.005  -0.160  0.00  0.00    +0.000 A 
ATOM     23  C15 UNK     0       5.496  -0.871   0.442  0.00  0.00    +0.000 A 
ATOM     24  C20 UNK     0       5.655  -0.855   1.835  0.00  0.00    +0.000 A 
ATOM     25  C21 UNK     0       4.883   0.005   2.620  0.00  0.00    +0.000 A 
ATOM     26  C16 UNK     0       3.956   0.861   2.019  0.00  0.00    +0.000 A 
BRANCH  23  27
ATOM     27  S2  UNK     0       6.470  -1.952  -0.549  0.00  0.00    +0.000 S 
ATOM     28  O5  UNK     0       5.686  -2.374  -1.760  0.00  0.00    +0.000 OA
ATOM     29  O4  UNK     0       6.833  -3.179   0.240  0.00  0.00    +0.000 OA
BRANCH  27  30
ATOM     30  N10 UNK     0       7.912  -1.141  -1.049  0.00  0.00    +0.000 NA
ATOM     31  H40 UNK     0       7.616  -0.277  -1.556  0.00  0.00    +0.000 HD
ATOM     32  H39 UNK     0       8.402  -0.828  -0.181  0.00  0.00    +0.000 HD
ENDBRANCH  27  30
ENDBRANCH  23  27
ENDBRANCH  20  21
ENDBRANCH   1  20
TORSDOF 9
