REMARK  Name = C:\Users\Maximilian\Desktop\Conformers\converted_pdb\conformers_pdb\T5342126_conf_55.pdb
REMARK  9 active torsions:
REMARK  status: ('A' for Active; 'I' for Inactive)
REMARK    1  A    between atoms: N6_1  and  C12_20
REMARK    2  A    between atoms: C18_5  and  C19_6
REMARK    3  A    between atoms: C19_6  and  N9_7
REMARK    4  A    between atoms: N9_7  and  C22_9
REMARK    5  A    between atoms: C22_9  and  N11_11
REMARK    6  A    between atoms: N11_11  and  C23_13
REMARK    7  A    between atoms: C12_20  and  C13_21
REMARK    8  A    between atoms: C15_23  and  S2_27
REMARK    9  A    between atoms: S2_27  and  N10_30
REMARK                            x       y       z     vdW  Elec       q    Type
REMARK                         _______ _______ _______ _____ _____    ______ ____
ROOT
ATOM      1  N6  UNK     0      -1.357   0.958  -2.208  0.00  0.00    +0.000 N 
ATOM      2  N7  UNK     0      -1.154   2.200  -2.617  0.00  0.00    +0.000 NA
ATOM      3  N8  UNK     0      -0.135   2.739  -1.962  0.00  0.00    +0.000 NA
ATOM      4  C17 UNK     0      -0.463   0.671  -1.247  0.00  0.00    +0.000 A 
ATOM      5  C18 UNK     0       0.315   1.798  -1.107  0.00  0.00    +0.000 A 
ENDROOT
BRANCH   5   6
ATOM      6  C19 UNK     0       1.434   2.000  -0.134  0.00  0.00    +0.000 C 
BRANCH   6   7
ATOM      7  N9  UNK     0       2.405   0.911  -0.238  0.00  0.00    +0.000 N 
ATOM      8  H38 UNK     0       2.358   0.156   0.483  0.00  0.00    +0.000 HD
BRANCH   7   9
ATOM      9  C22 UNK     0       3.396   0.816  -1.279  0.00  0.00    +0.000 C 
ATOM     10  S3  UNK     0       3.323   1.784  -2.603  0.00  0.00    +0.000 S 
BRANCH   9  11
ATOM     11  N11 UNK     0       4.379  -0.229  -1.248  0.00  0.00    +0.000 N 
ATOM     12  H41 UNK     0       4.733  -0.598  -2.160  0.00  0.00    +0.000 HD
BRANCH  11  13
ATOM     13  C23 UNK     0       4.903  -0.804  -0.039  0.00  0.00    +0.000 A 
ATOM     14  C24 UNK     0       5.030  -0.043   1.138  0.00  0.00    +0.000 A 
ATOM     15  C26 UNK     0       5.565  -0.617   2.295  0.00  0.00    +0.000 A 
ATOM     16  C28 UNK     0       5.993  -1.948   2.285  0.00  0.00    +0.000 A 
ATOM     17  I1  UNK     0       6.802  -2.811   4.030  0.00  0.00    +0.000 I 
ATOM     18  C27 UNK     0       5.891  -2.703   1.113  0.00  0.00    +0.000 A 
ATOM     19  C25 UNK     0       5.356  -2.132  -0.046  0.00  0.00    +0.000 A 
ENDBRANCH  11  13
ENDBRANCH   9  11
ENDBRANCH   7   9
ENDBRANCH   6   7
ENDBRANCH   5   6
BRANCH   1  20
ATOM     20  C12 UNK     0      -2.448   0.106  -2.665  0.00  0.00    +0.000 C 
BRANCH  20  21
ATOM     21  C13 UNK     0      -3.642   0.283  -1.769  0.00  0.00    +0.000 A 
ATOM     22  C14 UNK     0      -3.767  -0.485  -0.600  0.00  0.00    +0.000 A 
ATOM     23  C15 UNK     0      -4.855  -0.292   0.262  0.00  0.00    +0.000 A 
ATOM     24  C20 UNK     0      -5.811   0.688  -0.037  0.00  0.00    +0.000 A 
ATOM     25  C21 UNK     0      -5.683   1.464  -1.192  0.00  0.00    +0.000 A 
ATOM     26  C16 UNK     0      -4.601   1.267  -2.053  0.00  0.00    +0.000 A 
BRANCH  23  27
ATOM     27  S2  UNK     0      -4.990  -1.252   1.732  0.00  0.00    +0.000 S 
ATOM     28  O5  UNK     0      -4.563  -2.666   1.451  0.00  0.00    +0.000 OA
ATOM     29  O4  UNK     0      -6.415  -1.264   2.209  0.00  0.00    +0.000 OA
BRANCH  27  30
ATOM     30  N10 UNK     0      -3.979  -0.570   2.957  0.00  0.00    +0.000 NA
ATOM     31  H40 UNK     0      -4.039  -1.200   3.788  0.00  0.00    +0.000 HD
ATOM     32  H39 UNK     0      -2.996  -0.625   2.607  0.00  0.00    +0.000 HD
ENDBRANCH  27  30
ENDBRANCH  23  27
ENDBRANCH  20  21
ENDBRANCH   1  20
TORSDOF 9
