REMARK  Name = C:\Users\Maximilian\Desktop\Conformers\converted_pdb\conformers_pdb\T5342126_conf_68.pdb
REMARK  9 active torsions:
REMARK  status: ('A' for Active; 'I' for Inactive)
REMARK    1  A    between atoms: N6_1  and  C12_20
REMARK    2  A    between atoms: C18_5  and  C19_6
REMARK    3  A    between atoms: C19_6  and  N9_7
REMARK    4  A    between atoms: N9_7  and  C22_9
REMARK    5  A    between atoms: C22_9  and  N11_11
REMARK    6  A    between atoms: N11_11  and  C23_13
REMARK    7  A    between atoms: C12_20  and  C13_21
REMARK    8  A    between atoms: C15_23  and  S2_27
REMARK    9  A    between atoms: S2_27  and  N10_30
REMARK                            x       y       z     vdW  Elec       q    Type
REMARK                         _______ _______ _______ _____ _____    ______ ____
ROOT
ATOM      1  N6  UNK     0      -1.047  -0.859  -0.716  0.00  0.00    +0.000 N 
ATOM      2  N7  UNK     0      -0.361  -1.916  -0.310  0.00  0.00    +0.000 NA
ATOM      3  N8  UNK     0       0.583  -1.549   0.545  0.00  0.00    +0.000 NA
ATOM      4  C17 UNK     0      -0.559   0.232  -0.103  0.00  0.00    +0.000 A 
ATOM      5  C18 UNK     0       0.483  -0.211   0.683  0.00  0.00    +0.000 A 
ENDROOT
BRANCH   5   6
ATOM      6  C19 UNK     0       1.328   0.614   1.601  0.00  0.00    +0.000 C 
BRANCH   6   7
ATOM      7  N9  UNK     0       1.866   1.774   0.895  0.00  0.00    +0.000 N 
ATOM      8  H38 UNK     0       1.406   2.700   1.055  0.00  0.00    +0.000 HD
BRANCH   7   9
ATOM      9  C22 UNK     0       3.029   1.715   0.055  0.00  0.00    +0.000 C 
ATOM     10  S3  UNK     0       3.533   3.086  -0.695  0.00  0.00    +0.000 S 
BRANCH   9  11
ATOM     11  N11 UNK     0       3.642   0.453  -0.261  0.00  0.00    +0.000 N 
ATOM     12  H41 UNK     0       3.026  -0.384  -0.357  0.00  0.00    +0.000 HD
BRANCH  11  13
ATOM     13  C23 UNK     0       5.047   0.279  -0.515  0.00  0.00    +0.000 A 
ATOM     14  C24 UNK     0       5.472  -0.760  -1.358  0.00  0.00    +0.000 A 
ATOM     15  C26 UNK     0       6.834  -0.964  -1.599  0.00  0.00    +0.000 A 
ATOM     16  C28 UNK     0       7.785  -0.143  -0.985  0.00  0.00    +0.000 A 
ATOM     17  I1  UNK     0       9.840  -0.456  -1.344  0.00  0.00    +0.000 I 
ATOM     18  C27 UNK     0       7.373   0.879  -0.125  0.00  0.00    +0.000 A 
ATOM     19  C25 UNK     0       6.011   1.087   0.116  0.00  0.00    +0.000 A 
ENDBRANCH  11  13
ENDBRANCH   9  11
ENDBRANCH   7   9
ENDBRANCH   6   7
ENDBRANCH   5   6
BRANCH   1  20
ATOM     20  C12 UNK     0      -2.208  -0.917  -1.596  0.00  0.00    +0.000 C 
BRANCH  20  21
ATOM     21  C13 UNK     0      -3.458  -1.095  -0.781  0.00  0.00    +0.000 A 
ATOM     22  C14 UNK     0      -4.103   0.021  -0.226  0.00  0.00    +0.000 A 
ATOM     23  C15 UNK     0      -5.240  -0.143   0.577  0.00  0.00    +0.000 A 
ATOM     24  C20 UNK     0      -5.737  -1.431   0.820  0.00  0.00    +0.000 A 
ATOM     25  C21 UNK     0      -5.090  -2.546   0.281  0.00  0.00    +0.000 A 
ATOM     26  C16 UNK     0      -3.950  -2.382  -0.509  0.00  0.00    +0.000 A 
BRANCH  23  27
ATOM     27  S2  UNK     0      -6.049   1.265   1.258  0.00  0.00    +0.000 S 
ATOM     28  O5  UNK     0      -5.032   2.321   1.588  0.00  0.00    +0.000 OA
ATOM     29  O4  UNK     0      -6.770   0.880   2.520  0.00  0.00    +0.000 OA
BRANCH  27  30
ATOM     30  N10 UNK     0      -7.184   1.892   0.115  0.00  0.00    +0.000 NA
ATOM     31  H40 UNK     0      -7.826   1.108  -0.140  0.00  0.00    +0.000 HD
ATOM     32  H39 UNK     0      -6.647   2.136  -0.747  0.00  0.00    +0.000 HD
ENDBRANCH  27  30
ENDBRANCH  23  27
ENDBRANCH  20  21
ENDBRANCH   1  20
TORSDOF 9
