REMARK  Name = C:\Users\Maximilian\Desktop\Conformers\converted_pdb\conformers_pdb\T5342126_conf_23.pdb
REMARK  9 active torsions:
REMARK  status: ('A' for Active; 'I' for Inactive)
REMARK    1  A    between atoms: N6_1  and  C12_20
REMARK    2  A    between atoms: C18_5  and  C19_6
REMARK    3  A    between atoms: C19_6  and  N9_7
REMARK    4  A    between atoms: N9_7  and  C22_9
REMARK    5  A    between atoms: C22_9  and  N11_11
REMARK    6  A    between atoms: N11_11  and  C23_13
REMARK    7  A    between atoms: C12_20  and  C13_21
REMARK    8  A    between atoms: C15_23  and  S2_27
REMARK    9  A    between atoms: S2_27  and  N10_30
REMARK                            x       y       z     vdW  Elec       q    Type
REMARK                         _______ _______ _______ _____ _____    ______ ____
ROOT
ATOM      1  N6  UNK     0       0.875  -0.918  -0.878  0.00  0.00    +0.000 N 
ATOM      2  N7  UNK     0       0.243   0.224  -1.098  0.00  0.00    +0.000 NA
ATOM      3  N8  UNK     0      -0.806   0.331  -0.295  0.00  0.00    +0.000 NA
ATOM      4  C17 UNK     0       0.241  -1.577   0.106  0.00  0.00    +0.000 A 
ATOM      5  C18 UNK     0      -0.824  -0.783   0.466  0.00  0.00    +0.000 A 
ENDROOT
BRANCH   5   6
ATOM      6  C19 UNK     0      -1.853  -1.084   1.510  0.00  0.00    +0.000 C 
BRANCH   6   7
ATOM      7  N9  UNK     0      -2.603  -2.292   1.166  0.00  0.00    +0.000 N 
ATOM      8  H38 UNK     0      -2.509  -3.116   1.803  0.00  0.00    +0.000 HD
BRANCH   7   9
ATOM      9  C22 UNK     0      -3.312  -2.465  -0.073  0.00  0.00    +0.000 C 
ATOM     10  S3  UNK     0      -3.581  -3.979  -0.632  0.00  0.00    +0.000 S 
BRANCH   9  11
ATOM     11  N11 UNK     0      -3.638  -1.348  -0.911  0.00  0.00    +0.000 N 
ATOM     12  H41 UNK     0      -3.428  -1.426  -1.932  0.00  0.00    +0.000 HD
BRANCH  11  13
ATOM     13  C23 UNK     0      -4.331  -0.179  -0.444  0.00  0.00    +0.000 A 
ATOM     14  C24 UNK     0      -5.123  -0.211   0.719  0.00  0.00    +0.000 A 
ATOM     15  C26 UNK     0      -5.794   0.938   1.147  0.00  0.00    +0.000 A 
ATOM     16  C28 UNK     0      -5.691   2.125   0.414  0.00  0.00    +0.000 A 
ATOM     17  I1  UNK     0      -6.704   3.857   1.062  0.00  0.00    +0.000 I 
ATOM     18  C27 UNK     0      -4.920   2.159  -0.752  0.00  0.00    +0.000 A 
ATOM     19  C25 UNK     0      -4.247   1.012  -1.182  0.00  0.00    +0.000 A 
ENDBRANCH  11  13
ENDBRANCH   9  11
ENDBRANCH   7   9
ENDBRANCH   6   7
ENDBRANCH   5   6
BRANCH   1  20
ATOM     20  C12 UNK     0       2.109  -1.320  -1.542  0.00  0.00    +0.000 C 
BRANCH  20  21
ATOM     21  C13 UNK     0       3.293  -0.843  -0.748  0.00  0.00    +0.000 A 
ATOM     22  C14 UNK     0       3.791   0.456  -0.934  0.00  0.00    +0.000 A 
ATOM     23  C15 UNK     0       4.867   0.920  -0.165  0.00  0.00    +0.000 A 
ATOM     24  C20 UNK     0       5.432   0.087   0.810  0.00  0.00    +0.000 A 
ATOM     25  C21 UNK     0       4.930  -1.202   1.010  0.00  0.00    +0.000 A 
ATOM     26  C16 UNK     0       3.861  -1.665   0.238  0.00  0.00    +0.000 A 
BRANCH  23  27
ATOM     27  S2  UNK     0       5.475   2.556  -0.396  0.00  0.00    +0.000 S 
ATOM     28  O5  UNK     0       5.367   2.937  -1.846  0.00  0.00    +0.000 OA
ATOM     29  O4  UNK     0       6.920   2.627   0.013  0.00  0.00    +0.000 OA
BRANCH  27  30
ATOM     30  N10 UNK     0       4.551   3.659   0.561  0.00  0.00    +0.000 NA
ATOM     31  H40 UNK     0       4.616   3.331   1.551  0.00  0.00    +0.000 HD
ATOM     32  H39 UNK     0       3.553   3.550   0.273  0.00  0.00    +0.000 HD
ENDBRANCH  27  30
ENDBRANCH  23  27
ENDBRANCH  20  21
ENDBRANCH   1  20
TORSDOF 9
