REMARK  Name = C:\Users\Maximilian\Desktop\Conformers\converted_pdb\conformers_pdb\T5342126_conf_64.pdb
REMARK  9 active torsions:
REMARK  status: ('A' for Active; 'I' for Inactive)
REMARK    1  A    between atoms: N6_1  and  C12_20
REMARK    2  A    between atoms: C18_5  and  C19_6
REMARK    3  A    between atoms: C19_6  and  N9_7
REMARK    4  A    between atoms: N9_7  and  C22_9
REMARK    5  A    between atoms: C22_9  and  N11_11
REMARK    6  A    between atoms: N11_11  and  C23_13
REMARK    7  A    between atoms: C12_20  and  C13_21
REMARK    8  A    between atoms: C15_23  and  S2_27
REMARK    9  A    between atoms: S2_27  and  N10_30
REMARK                            x       y       z     vdW  Elec       q    Type
REMARK                         _______ _______ _______ _____ _____    ______ ____
ROOT
ATOM      1  N6  UNK     0      -1.335  -2.181   0.333  0.00  0.00    +0.000 N 
ATOM      2  N7  UNK     0      -1.108  -3.013   1.337  0.00  0.00    +0.000 NA
ATOM      3  N8  UNK     0      -0.031  -2.635   2.012  0.00  0.00    +0.000 NA
ATOM      4  C17 UNK     0      -0.398  -1.218   0.352  0.00  0.00    +0.000 A 
ATOM      5  C18 UNK     0       0.431  -1.520   1.409  0.00  0.00    +0.000 A 
ENDROOT
BRANCH   5   6
ATOM      6  C19 UNK     0       1.614  -0.731   1.874  0.00  0.00    +0.000 C 
BRANCH   6   7
ATOM      7  N9  UNK     0       2.540  -0.497   0.767  0.00  0.00    +0.000 N 
ATOM      8  H38 UNK     0       2.512   0.441   0.308  0.00  0.00    +0.000 HD
BRANCH   7   9
ATOM      9  C22 UNK     0       3.462  -1.486   0.269  0.00  0.00    +0.000 C 
ATOM     10  S3  UNK     0       3.339  -3.058   0.726  0.00  0.00    +0.000 S 
BRANCH   9  11
ATOM     11  N11 UNK     0       4.412  -1.141  -0.751  0.00  0.00    +0.000 N 
ATOM     12  H41 UNK     0       4.698  -1.885  -1.428  0.00  0.00    +0.000 HD
BRANCH  11  13
ATOM     13  C23 UNK     0       4.990   0.167  -0.900  0.00  0.00    +0.000 A 
ATOM     14  C24 UNK     0       5.212   1.000   0.212  0.00  0.00    +0.000 A 
ATOM     15  C26 UNK     0       5.800   2.257   0.044  0.00  0.00    +0.000 A 
ATOM     16  C28 UNK     0       6.185   2.688  -1.229  0.00  0.00    +0.000 A 
ATOM     17  I1  UNK     0       7.073   4.585  -1.478  0.00  0.00    +0.000 I 
ATOM     18  C27 UNK     0       5.988   1.856  -2.335  0.00  0.00    +0.000 A 
ATOM     19  C25 UNK     0       5.401   0.598  -2.171  0.00  0.00    +0.000 A 
ENDBRANCH  11  13
ENDBRANCH   9  11
ENDBRANCH   7   9
ENDBRANCH   6   7
ENDBRANCH   5   6
BRANCH   1  20
ATOM     20  C12 UNK     0      -2.484  -2.261  -0.562  0.00  0.00    +0.000 C 
BRANCH  20  21
ATOM     21  C13 UNK     0      -3.622  -1.453  -0.003  0.00  0.00    +0.000 A 
ATOM     22  C14 UNK     0      -3.722  -0.083  -0.290  0.00  0.00    +0.000 A 
ATOM     23  C15 UNK     0      -4.755   0.685   0.266  0.00  0.00    +0.000 A 
ATOM     24  C20 UNK     0      -5.693   0.076   1.111  0.00  0.00    +0.000 A 
ATOM     25  C21 UNK     0      -5.588  -1.285   1.412  0.00  0.00    +0.000 A 
ATOM     26  C16 UNK     0      -4.552  -2.047   0.864  0.00  0.00    +0.000 A 
BRANCH  23  27
ATOM     27  S2  UNK     0      -4.881   2.399  -0.115  0.00  0.00    +0.000 S 
ATOM     28  O5  UNK     0      -3.505   2.994  -0.226  0.00  0.00    +0.000 OA
ATOM     29  O4  UNK     0      -5.629   3.113   0.975  0.00  0.00    +0.000 OA
BRANCH  27  30
ATOM     30  N10 UNK     0      -5.722   2.593  -1.612  0.00  0.00    +0.000 NA
ATOM     31  H40 UNK     0      -5.150   2.120  -2.347  0.00  0.00    +0.000 HD
ATOM     32  H39 UNK     0      -5.716   3.614  -1.836  0.00  0.00    +0.000 HD
ENDBRANCH  27  30
ENDBRANCH  23  27
ENDBRANCH  20  21
ENDBRANCH   1  20
TORSDOF 9
