REMARK  Name = C:\Users\Maximilian\Desktop\Conformers\converted_pdb\conformers_pdb\T5342126_conf_79.pdb
REMARK  9 active torsions:
REMARK  status: ('A' for Active; 'I' for Inactive)
REMARK    1  A    between atoms: N6_1  and  C12_20
REMARK    2  A    between atoms: C18_5  and  C19_6
REMARK    3  A    between atoms: C19_6  and  N9_7
REMARK    4  A    between atoms: N9_7  and  C22_9
REMARK    5  A    between atoms: C22_9  and  N11_11
REMARK    6  A    between atoms: N11_11  and  C23_13
REMARK    7  A    between atoms: C12_20  and  C13_21
REMARK    8  A    between atoms: C15_23  and  S2_27
REMARK    9  A    between atoms: S2_27  and  N10_30
REMARK                            x       y       z     vdW  Elec       q    Type
REMARK                         _______ _______ _______ _____ _____    ______ ____
ROOT
ATOM      1  N6  UNK     0      -1.828  -1.909   0.233  0.00  0.00    +0.000 N 
ATOM      2  N7  UNK     0      -1.483  -2.329   1.440  0.00  0.00    +0.000 NA
ATOM      3  N8  UNK     0      -0.503  -1.579   1.925  0.00  0.00    +0.000 NA
ATOM      4  C17 UNK     0      -1.071  -0.845  -0.084  0.00  0.00    +0.000 A 
ATOM      5  C18 UNK     0      -0.239  -0.640   0.994  0.00  0.00    +0.000 A 
ENDROOT
BRANCH   5   6
ATOM      6  C19 UNK     0       0.843   0.387   1.105  0.00  0.00    +0.000 C 
BRANCH   6   7
ATOM      7  N9  UNK     0       2.084  -0.103   0.503  0.00  0.00    +0.000 N 
ATOM      8  H38 UNK     0       2.106  -1.059   0.080  0.00  0.00    +0.000 HD
BRANCH   7   9
ATOM      9  C22 UNK     0       3.304   0.657   0.497  0.00  0.00    +0.000 C 
ATOM     10  S3  UNK     0       3.321   2.213   1.037  0.00  0.00    +0.000 S 
BRANCH   9  11
ATOM     11  N11 UNK     0       4.458   0.107  -0.160  0.00  0.00    +0.000 N 
ATOM     12  H41 UNK     0       4.295  -0.604  -0.908  0.00  0.00    +0.000 HD
BRANCH  11  13
ATOM     13  C23 UNK     0       5.816   0.486   0.122  0.00  0.00    +0.000 A 
ATOM     14  C24 UNK     0       6.766   0.467  -0.912  0.00  0.00    +0.000 A 
ATOM     15  C26 UNK     0       8.098   0.805  -0.654  0.00  0.00    +0.000 A 
ATOM     16  C28 UNK     0       8.497   1.148   0.641  0.00  0.00    +0.000 A 
ATOM     17  I1  UNK     0      10.507   1.654   1.028  0.00  0.00    +0.000 I 
ATOM     18  C27 UNK     0       7.563   1.145   1.682  0.00  0.00    +0.000 A 
ATOM     19  C25 UNK     0       6.230   0.808   1.427  0.00  0.00    +0.000 A 
ENDBRANCH  11  13
ENDBRANCH   9  11
ENDBRANCH   7   9
ENDBRANCH   6   7
ENDBRANCH   5   6
BRANCH   1  20
ATOM     20  C12 UNK     0      -2.915  -2.472  -0.558  0.00  0.00    +0.000 C 
BRANCH  20  21
ATOM     21  C13 UNK     0      -4.192  -1.734  -0.267  0.00  0.00    +0.000 A 
ATOM     22  C14 UNK     0      -4.514  -0.572  -0.987  0.00  0.00    +0.000 A 
ATOM     23  C15 UNK     0      -5.681   0.145  -0.689  0.00  0.00    +0.000 A 
ATOM     24  C20 UNK     0      -6.517  -0.290   0.348  0.00  0.00    +0.000 A 
ATOM     25  C21 UNK     0      -6.193  -1.438   1.076  0.00  0.00    +0.000 A 
ATOM     26  C16 UNK     0      -5.032  -2.156   0.774  0.00  0.00    +0.000 A 
BRANCH  23  27
ATOM     27  S2  UNK     0      -6.066   1.611  -1.586  0.00  0.00    +0.000 S 
ATOM     28  O5  UNK     0      -7.547   1.863  -1.545  0.00  0.00    +0.000 OA
ATOM     29  O4  UNK     0      -5.645   1.452  -3.020  0.00  0.00    +0.000 OA
BRANCH  27  30
ATOM     30  N10 UNK     0      -5.235   2.954  -0.885  0.00  0.00    +0.000 NA
ATOM     31  H40 UNK     0      -5.520   2.999   0.119  0.00  0.00    +0.000 HD
ATOM     32  H39 UNK     0      -4.216   2.723  -0.898  0.00  0.00    +0.000 HD
ENDBRANCH  27  30
ENDBRANCH  23  27
ENDBRANCH  20  21
ENDBRANCH   1  20
TORSDOF 9
