REMARK  Name = C:\Users\Maximilian\Desktop\Conformers\converted_pdb\conformers_pdb\T5342126_conf_17.pdb
REMARK  9 active torsions:
REMARK  status: ('A' for Active; 'I' for Inactive)
REMARK    1  A    between atoms: N6_1  and  C12_20
REMARK    2  A    between atoms: C18_5  and  C19_6
REMARK    3  A    between atoms: C19_6  and  N9_7
REMARK    4  A    between atoms: N9_7  and  C22_9
REMARK    5  A    between atoms: C22_9  and  N11_11
REMARK    6  A    between atoms: N11_11  and  C23_13
REMARK    7  A    between atoms: C12_20  and  C13_21
REMARK    8  A    between atoms: C15_23  and  S2_27
REMARK    9  A    between atoms: S2_27  and  N10_30
REMARK                            x       y       z     vdW  Elec       q    Type
REMARK                         _______ _______ _______ _____ _____    ______ ____
ROOT
ATOM      1  N6  UNK     0      -1.836  -0.373  -2.362  0.00  0.00    +0.000 N 
ATOM      2  N7  UNK     0      -1.562  -1.528  -2.948  0.00  0.00    +0.000 NA
ATOM      3  N8  UNK     0      -0.359  -1.953  -2.587  0.00  0.00    +0.000 NA
ATOM      4  C17 UNK     0      -0.797  -0.031  -1.581  0.00  0.00    +0.000 A 
ATOM      5  C18 UNK     0       0.131  -1.038  -1.726  0.00  0.00    +0.000 A 
ENDROOT
BRANCH   5   6
ATOM      6  C19 UNK     0       1.494  -1.092  -1.111  0.00  0.00    +0.000 C 
BRANCH   6   7
ATOM      7  N9  UNK     0       2.455  -0.351  -1.926  0.00  0.00    +0.000 N 
ATOM      8  H38 UNK     0       2.154   0.042  -2.848  0.00  0.00    +0.000 HD
BRANCH   7   9
ATOM      9  C22 UNK     0       3.791  -0.085  -1.475  0.00  0.00    +0.000 C 
ATOM     10  S3  UNK     0       4.795   0.783  -2.443  0.00  0.00    +0.000 S 
BRANCH   9  11
ATOM     11  N11 UNK     0       4.298  -0.714  -0.285  0.00  0.00    +0.000 N 
ATOM     12  H41 UNK     0       3.952  -1.671  -0.050  0.00  0.00    +0.000 HD
BRANCH  11  13
ATOM     13  C23 UNK     0       5.293  -0.131   0.575  0.00  0.00    +0.000 A 
ATOM     14  C24 UNK     0       5.382   1.262   0.751  0.00  0.00    +0.000 A 
ATOM     15  C26 UNK     0       6.339   1.804   1.614  0.00  0.00    +0.000 A 
ATOM     16  C28 UNK     0       7.206   0.963   2.318  0.00  0.00    +0.000 A 
ATOM     17  I1  UNK     0       8.648   1.783   3.620  0.00  0.00    +0.000 I 
ATOM     18  C27 UNK     0       7.109  -0.423   2.165  0.00  0.00    +0.000 A 
ATOM     19  C25 UNK     0       6.152  -0.968   1.303  0.00  0.00    +0.000 A 
ENDBRANCH  11  13
ENDBRANCH   9  11
ENDBRANCH   7   9
ENDBRANCH   6   7
ENDBRANCH   5   6
BRANCH   1  20
ATOM     20  C12 UNK     0      -3.100   0.340  -2.493  0.00  0.00    +0.000 C 
BRANCH  20  21
ATOM     21  C13 UNK     0      -4.046  -0.096  -1.409  0.00  0.00    +0.000 A 
ATOM     22  C14 UNK     0      -4.030   0.543  -0.158  0.00  0.00    +0.000 A 
ATOM     23  C15 UNK     0      -4.877   0.108   0.871  0.00  0.00    +0.000 A 
ATOM     24  C20 UNK     0      -5.746  -0.968   0.645  0.00  0.00    +0.000 A 
ATOM     25  C21 UNK     0      -5.754  -1.616  -0.592  0.00  0.00    +0.000 A 
ATOM     26  C16 UNK     0      -4.903  -1.188  -1.614  0.00  0.00    +0.000 A 
BRANCH  23  27
ATOM     27  S2  UNK     0      -4.865   0.928   2.429  0.00  0.00    +0.000 S 
ATOM     28  O5  UNK     0      -3.476   1.416   2.735  0.00  0.00    +0.000 OA
ATOM     29  O4  UNK     0      -5.289  -0.025   3.511  0.00  0.00    +0.000 OA
BRANCH  27  30
ATOM     30  N10 UNK     0      -5.952   2.272   2.387  0.00  0.00    +0.000 NA
ATOM     31  H40 UNK     0      -5.645   2.887   1.600  0.00  0.00    +0.000 HD
ATOM     32  H39 UNK     0      -6.891   1.896   2.126  0.00  0.00    +0.000 HD
ENDBRANCH  27  30
ENDBRANCH  23  27
ENDBRANCH  20  21
ENDBRANCH   1  20
TORSDOF 9
