REMARK  Name = C:\Users\Maximilian\Desktop\Conformers\converted_pdb\conformers_pdb\T5342126_conf_30.pdb
REMARK  9 active torsions:
REMARK  status: ('A' for Active; 'I' for Inactive)
REMARK    1  A    between atoms: N6_1  and  C12_20
REMARK    2  A    between atoms: C18_5  and  C19_6
REMARK    3  A    between atoms: C19_6  and  N9_7
REMARK    4  A    between atoms: N9_7  and  C22_9
REMARK    5  A    between atoms: C22_9  and  N11_11
REMARK    6  A    between atoms: N11_11  and  C23_13
REMARK    7  A    between atoms: C12_20  and  C13_21
REMARK    8  A    between atoms: C15_23  and  S2_27
REMARK    9  A    between atoms: S2_27  and  N10_30
REMARK                            x       y       z     vdW  Elec       q    Type
REMARK                         _______ _______ _______ _____ _____    ______ ____
ROOT
ATOM      1  N6  UNK     0      -1.775  -1.926  -0.263  0.00  0.00    +0.000 N 
ATOM      2  N7  UNK     0      -1.499  -2.671  -1.322  0.00  0.00    +0.000 NA
ATOM      3  N8  UNK     0      -0.464  -2.168  -1.980  0.00  0.00    +0.000 NA
ATOM      4  C17 UNK     0      -0.914  -0.895  -0.226  0.00  0.00    +0.000 A 
ATOM      5  C18 UNK     0      -0.091  -1.053  -1.319  0.00  0.00    +0.000 A 
ENDROOT
BRANCH   5   6
ATOM      6  C19 UNK     0       1.080  -0.198  -1.687  0.00  0.00    +0.000 C 
BRANCH   6   7
ATOM      7  N9  UNK     0       2.285  -0.643  -0.985  0.00  0.00    +0.000 N 
ATOM      8  H38 UNK     0       2.228  -1.464  -0.339  0.00  0.00    +0.000 HD
BRANCH   7   9
ATOM      9  C22 UNK     0       3.552   0.024  -1.106  0.00  0.00    +0.000 C 
ATOM     10  S3  UNK     0       3.753   1.246  -2.192  0.00  0.00    +0.000 S 
BRANCH   9  11
ATOM     11  N11 UNK     0       4.687  -0.514  -0.406  0.00  0.00    +0.000 N 
ATOM     12  H41 UNK     0       4.666  -1.530  -0.160  0.00  0.00    +0.000 HD
BRANCH  11  13
ATOM     13  C23 UNK     0       5.856   0.240  -0.045  0.00  0.00    +0.000 A 
ATOM     14  C24 UNK     0       7.105  -0.399  -0.010  0.00  0.00    +0.000 A 
ATOM     15  C26 UNK     0       8.252   0.308   0.366  0.00  0.00    +0.000 A 
ATOM     16  C28 UNK     0       8.158   1.656   0.725  0.00  0.00    +0.000 A 
ATOM     17  I1  UNK     0       9.887   2.720   1.294  0.00  0.00    +0.000 I 
ATOM     18  C27 UNK     0       6.914   2.294   0.717  0.00  0.00    +0.000 A 
ATOM     19  C25 UNK     0       5.766   1.589   0.342  0.00  0.00    +0.000 A 
ENDBRANCH  11  13
ENDBRANCH   9  11
ENDBRANCH   7   9
ENDBRANCH   6   7
ENDBRANCH   5   6
BRANCH   1  20
ATOM     20  C12 UNK     0      -2.892  -2.161   0.644  0.00  0.00    +0.000 C 
BRANCH  20  21
ATOM     21  C13 UNK     0      -4.101  -1.406   0.169  0.00  0.00    +0.000 A 
ATOM     22  C14 UNK     0      -4.305  -0.075   0.567  0.00  0.00    +0.000 A 
ATOM     23  C15 UNK     0      -5.407   0.648   0.088  0.00  0.00    +0.000 A 
ATOM     24  C20 UNK     0      -6.310   0.034  -0.790  0.00  0.00    +0.000 A 
ATOM     25  C21 UNK     0      -6.103  -1.285  -1.201  0.00  0.00    +0.000 A 
ATOM     26  C16 UNK     0      -4.999  -2.002  -0.731  0.00  0.00    +0.000 A 
BRANCH  23  27
ATOM     27  S2  UNK     0      -5.665   2.310   0.609  0.00  0.00    +0.000 S 
ATOM     28  O5  UNK     0      -6.433   3.062  -0.441  0.00  0.00    +0.000 OA
ATOM     29  O4  UNK     0      -4.339   2.989   0.813  0.00  0.00    +0.000 OA
BRANCH  27  30
ATOM     30  N10 UNK     0      -6.553   2.322   2.092  0.00  0.00    +0.000 NA
ATOM     31  H40 UNK     0      -6.005   1.760   2.781  0.00  0.00    +0.000 HD
ATOM     32  H39 UNK     0      -7.442   1.801   1.918  0.00  0.00    +0.000 HD
ENDBRANCH  27  30
ENDBRANCH  23  27
ENDBRANCH  20  21
ENDBRANCH   1  20
TORSDOF 9
