REMARK  Name = C:\Users\Maximilian\Desktop\Conformers\converted_pdb\conformers_pdb\T5342126_conf_13.pdb
REMARK  9 active torsions:
REMARK  status: ('A' for Active; 'I' for Inactive)
REMARK    1  A    between atoms: N6_1  and  C12_20
REMARK    2  A    between atoms: C18_5  and  C19_6
REMARK    3  A    between atoms: C19_6  and  N9_7
REMARK    4  A    between atoms: N9_7  and  C22_9
REMARK    5  A    between atoms: C22_9  and  N11_11
REMARK    6  A    between atoms: N11_11  and  C23_13
REMARK    7  A    between atoms: C12_20  and  C13_21
REMARK    8  A    between atoms: C15_23  and  S2_27
REMARK    9  A    between atoms: S2_27  and  N10_30
REMARK                            x       y       z     vdW  Elec       q    Type
REMARK                         _______ _______ _______ _____ _____    ______ ____
ROOT
ATOM      1  N6  UNK     0       1.682  -1.323   2.591  0.00  0.00    +0.000 N 
ATOM      2  N7  UNK     0       1.184  -0.194   3.072  0.00  0.00    +0.000 NA
ATOM      3  N8  UNK     0      -0.131  -0.167   2.910  0.00  0.00    +0.000 NA
ATOM      4  C17 UNK     0       0.676  -2.054   2.084  0.00  0.00    +0.000 A 
ATOM      5  C18 UNK     0      -0.469  -1.319   2.295  0.00  0.00    +0.000 A 
ENDROOT
BRANCH   5   6
ATOM      6  C19 UNK     0      -1.852  -1.669   1.849  0.00  0.00    +0.000 C 
BRANCH   6   7
ATOM      7  N9  UNK     0      -2.331  -0.690   0.873  0.00  0.00    +0.000 N 
ATOM      8  H38 UNK     0      -2.974   0.056   1.221  0.00  0.00    +0.000 HD
BRANCH   7   9
ATOM      9  C22 UNK     0      -1.955  -0.687  -0.518  0.00  0.00    +0.000 C 
ATOM     10  S3  UNK     0      -0.723  -1.626  -1.062  0.00  0.00    +0.000 S 
BRANCH   9  11
ATOM     11  N11 UNK     0      -2.555   0.249  -1.426  0.00  0.00    +0.000 N 
ATOM     12  H41 UNK     0      -1.979   0.592  -2.228  0.00  0.00    +0.000 HD
BRANCH  11  13
ATOM     13  C23 UNK     0      -3.899   0.743  -1.299  0.00  0.00    +0.000 A 
ATOM     14  C24 UNK     0      -4.919  -0.047  -0.737  0.00  0.00    +0.000 A 
ATOM     15  C26 UNK     0      -6.224   0.446  -0.648  0.00  0.00    +0.000 A 
ATOM     16  C28 UNK     0      -6.527   1.722  -1.131  0.00  0.00    +0.000 A 
ATOM     17  I1  UNK     0      -8.497   2.462  -0.998  0.00  0.00    +0.000 I 
ATOM     18  C27 UNK     0      -5.523   2.504  -1.711  0.00  0.00    +0.000 A 
ATOM     19  C25 UNK     0      -4.217   2.014  -1.802  0.00  0.00    +0.000 A 
ENDBRANCH  11  13
ENDBRANCH   9  11
ENDBRANCH   7   9
ENDBRANCH   6   7
ENDBRANCH   5   6
BRANCH   1  20
ATOM     20  C12 UNK     0       3.106  -1.620   2.491  0.00  0.00    +0.000 C 
BRANCH  20  21
ATOM     21  C13 UNK     0       3.606  -1.238   1.125  0.00  0.00    +0.000 A 
ATOM     22  C14 UNK     0       3.960   0.092   0.851  0.00  0.00    +0.000 A 
ATOM     23  C15 UNK     0       4.369   0.466  -0.437  0.00  0.00    +0.000 A 
ATOM     24  C20 UNK     0       4.403  -0.492  -1.459  0.00  0.00    +0.000 A 
ATOM     25  C21 UNK     0       4.039  -1.814  -1.194  0.00  0.00    +0.000 A 
ATOM     26  C16 UNK     0       3.637  -2.187   0.091  0.00  0.00    +0.000 A 
BRANCH  23  27
ATOM     27  S2  UNK     0       4.789   2.142  -0.775  0.00  0.00    +0.000 S 
ATOM     28  O5  UNK     0       5.741   2.206  -1.936  0.00  0.00    +0.000 OA
ATOM     29  O4  UNK     0       5.454   2.750   0.428  0.00  0.00    +0.000 OA
BRANCH  27  30
ATOM     30  N10 UNK     0       3.354   3.026  -1.158  0.00  0.00    +0.000 NA
ATOM     31  H40 UNK     0       3.634   4.025  -1.279  0.00  0.00    +0.000 HD
ATOM     32  H39 UNK     0       2.737   2.987  -0.315  0.00  0.00    +0.000 HD
ENDBRANCH  27  30
ENDBRANCH  23  27
ENDBRANCH  20  21
ENDBRANCH   1  20
TORSDOF 9
