REMARK  Name = C:\Users\Maximilian\Desktop\Conformers\converted_pdb\conformers_pdb\T5342126_conf_77.pdb
REMARK  9 active torsions:
REMARK  status: ('A' for Active; 'I' for Inactive)
REMARK    1  A    between atoms: N6_1  and  C12_20
REMARK    2  A    between atoms: C18_5  and  C19_6
REMARK    3  A    between atoms: C19_6  and  N9_7
REMARK    4  A    between atoms: N9_7  and  C22_9
REMARK    5  A    between atoms: C22_9  and  N11_11
REMARK    6  A    between atoms: N11_11  and  C23_13
REMARK    7  A    between atoms: C12_20  and  C13_21
REMARK    8  A    between atoms: C15_23  and  S2_27
REMARK    9  A    between atoms: S2_27  and  N10_30
REMARK                            x       y       z     vdW  Elec       q    Type
REMARK                         _______ _______ _______ _____ _____    ______ ____
ROOT
ATOM      1  N6  UNK     0      -1.784  -1.083   0.063  0.00  0.00    +0.000 N 
ATOM      2  N7  UNK     0      -1.747  -1.255   1.375  0.00  0.00    +0.000 NA
ATOM      3  N8  UNK     0      -0.689  -0.643   1.889  0.00  0.00    +0.000 NA
ATOM      4  C17 UNK     0      -0.737  -0.324  -0.301  0.00  0.00    +0.000 A 
ATOM      5  C18 UNK     0      -0.052  -0.046   0.861  0.00  0.00    +0.000 A 
ENDROOT
BRANCH   5   6
ATOM      6  C19 UNK     0       1.232   0.713   0.982  0.00  0.00    +0.000 C 
BRANCH   6   7
ATOM      7  N9  UNK     0       2.377  -0.171   0.760  0.00  0.00    +0.000 N 
ATOM      8  H38 UNK     0       2.211  -1.184   0.558  0.00  0.00    +0.000 HD
BRANCH   7   9
ATOM      9  C22 UNK     0       3.737   0.294   0.762  0.00  0.00    +0.000 C 
ATOM     10  S3  UNK     0       4.088   1.846   1.188  0.00  0.00    +0.000 S 
BRANCH   9  11
ATOM     11  N11 UNK     0       4.795  -0.660   0.572  0.00  0.00    +0.000 N 
ATOM     12  H41 UNK     0       4.598  -1.656   0.819  0.00  0.00    +0.000 HD
BRANCH  11  13
ATOM     13  C23 UNK     0       6.111  -0.335   0.094  0.00  0.00    +0.000 A 
ATOM     14  C24 UNK     0       6.311   0.666  -0.875  0.00  0.00    +0.000 A 
ATOM     15  C26 UNK     0       7.597   0.944  -1.347  0.00  0.00    +0.000 A 
ATOM     16  C28 UNK     0       8.692   0.217  -0.869  0.00  0.00    +0.000 A 
ATOM     17  I1  UNK     0      10.631   0.637  -1.584  0.00  0.00    +0.000 I 
ATOM     18  C27 UNK     0       8.498  -0.795   0.075  0.00  0.00    +0.000 A 
ATOM     19  C25 UNK     0       7.213  -1.076   0.548  0.00  0.00    +0.000 A 
ENDBRANCH  11  13
ENDBRANCH   9  11
ENDBRANCH   7   9
ENDBRANCH   6   7
ENDBRANCH   5   6
BRANCH   1  20
ATOM     20  C12 UNK     0      -2.849  -1.573  -0.804  0.00  0.00    +0.000 C 
BRANCH  20  21
ATOM     21  C13 UNK     0      -3.923  -0.529  -0.932  0.00  0.00    +0.000 A 
ATOM     22  C14 UNK     0      -4.960  -0.462   0.013  0.00  0.00    +0.000 A 
ATOM     23  C15 UNK     0      -5.938   0.538  -0.077  0.00  0.00    +0.000 A 
ATOM     24  C20 UNK     0      -5.879   1.473  -1.120  0.00  0.00    +0.000 A 
ATOM     25  C21 UNK     0      -4.841   1.420  -2.053  0.00  0.00    +0.000 A 
ATOM     26  C16 UNK     0      -3.861   0.428  -1.957  0.00  0.00    +0.000 A 
BRANCH  23  27
ATOM     27  S2  UNK     0      -7.248   0.601   1.097  0.00  0.00    +0.000 S 
ATOM     28  O5  UNK     0      -7.724   2.018   1.255  0.00  0.00    +0.000 OA
ATOM     29  O4  UNK     0      -6.761   0.106   2.430  0.00  0.00    +0.000 OA
BRANCH  27  30
ATOM     30  N10 UNK     0      -8.559  -0.389   0.558  0.00  0.00    +0.000 NA
ATOM     31  H40 UNK     0      -8.176  -1.351   0.419  0.00  0.00    +0.000 HD
ATOM     32  H39 UNK     0      -8.838  -0.037  -0.385  0.00  0.00    +0.000 HD
ENDBRANCH  27  30
ENDBRANCH  23  27
ENDBRANCH  20  21
ENDBRANCH   1  20
TORSDOF 9
