REMARK  Name = C:\Users\Maximilian\Desktop\Conformers\converted_pdb\conformers_pdb\T5342126_conf_50.pdb
REMARK  9 active torsions:
REMARK  status: ('A' for Active; 'I' for Inactive)
REMARK    1  A    between atoms: N6_1  and  C12_20
REMARK    2  A    between atoms: C18_5  and  C19_6
REMARK    3  A    between atoms: C19_6  and  N9_7
REMARK    4  A    between atoms: N9_7  and  C22_9
REMARK    5  A    between atoms: C22_9  and  N11_11
REMARK    6  A    between atoms: N11_11  and  C23_13
REMARK    7  A    between atoms: C12_20  and  C13_21
REMARK    8  A    between atoms: C15_23  and  S2_27
REMARK    9  A    between atoms: S2_27  and  N10_30
REMARK                            x       y       z     vdW  Elec       q    Type
REMARK                         _______ _______ _______ _____ _____    ______ ____
ROOT
ATOM      1  N6  UNK     0       1.466  -0.552  -1.445  0.00  0.00    +0.000 N 
ATOM      2  N7  UNK     0       0.696   0.215  -2.202  0.00  0.00    +0.000 NA
ATOM      3  N8  UNK     0      -0.350   0.642  -1.508  0.00  0.00    +0.000 NA
ATOM      4  C17 UNK     0       0.929  -0.620  -0.216  0.00  0.00    +0.000 A 
ATOM      5  C18 UNK     0      -0.225   0.131  -0.266  0.00  0.00    +0.000 A 
ENDROOT
BRANCH   5   6
ATOM      6  C19 UNK     0      -1.190   0.371   0.851  0.00  0.00    +0.000 C 
BRANCH   6   7
ATOM      7  N9  UNK     0      -2.514  -0.134   0.492  0.00  0.00    +0.000 N 
ATOM      8  H38 UNK     0      -3.206   0.556   0.122  0.00  0.00    +0.000 HD
BRANCH   7   9
ATOM      9  C22 UNK     0      -2.900  -1.519   0.588  0.00  0.00    +0.000 C 
ATOM     10  S3  UNK     0      -1.779  -2.690   0.851  0.00  0.00    +0.000 S 
BRANCH   9  11
ATOM     11  N11 UNK     0      -4.251  -1.914   0.309  0.00  0.00    +0.000 N 
ATOM     12  H41 UNK     0      -4.411  -2.863  -0.100  0.00  0.00    +0.000 HD
BRANCH  11  13
ATOM     13  C23 UNK     0      -5.398  -1.082   0.551  0.00  0.00    +0.000 A 
ATOM     14  C24 UNK     0      -6.545  -1.240  -0.242  0.00  0.00    +0.000 A 
ATOM     15  C26 UNK     0      -7.681  -0.459  -0.007  0.00  0.00    +0.000 A 
ATOM     16  C28 UNK     0      -7.686   0.477   1.032  0.00  0.00    +0.000 A 
ATOM     17  I1  UNK     0      -9.401   1.653   1.385  0.00  0.00    +0.000 I 
ATOM     18  C27 UNK     0      -6.556   0.625   1.842  0.00  0.00    +0.000 A 
ATOM     19  C25 UNK     0      -5.419  -0.155   1.610  0.00  0.00    +0.000 A 
ENDBRANCH  11  13
ENDBRANCH   9  11
ENDBRANCH   7   9
ENDBRANCH   6   7
ENDBRANCH   5   6
BRANCH   1  20
ATOM     20  C12 UNK     0       2.734  -1.129  -1.875  0.00  0.00    +0.000 C 
BRANCH  20  21
ATOM     21  C13 UNK     0       3.862  -0.199  -1.526  0.00  0.00    +0.000 A 
ATOM     22  C14 UNK     0       4.500  -0.298  -0.279  0.00  0.00    +0.000 A 
ATOM     23  C15 UNK     0       5.526   0.594   0.065  0.00  0.00    +0.000 A 
ATOM     24  C20 UNK     0       5.898   1.603  -0.833  0.00  0.00    +0.000 A 
ATOM     25  C21 UNK     0       5.254   1.716  -2.068  0.00  0.00    +0.000 A 
ATOM     26  C16 UNK     0       4.237   0.822  -2.414  0.00  0.00    +0.000 A 
BRANCH  23  27
ATOM     27  S2  UNK     0       6.314   0.469   1.635  0.00  0.00    +0.000 S 
ATOM     28  O5  UNK     0       7.718   0.999   1.545  0.00  0.00    +0.000 OA
ATOM     29  O4  UNK     0       6.371  -0.971   2.061  0.00  0.00    +0.000 OA
BRANCH  27  30
ATOM     30  N10 UNK     0       5.427   1.382   2.804  0.00  0.00    +0.000 NA
ATOM     31  H40 UNK     0       4.453   1.005   2.810  0.00  0.00    +0.000 HD
ATOM     32  H39 UNK     0       5.369   2.361   2.445  0.00  0.00    +0.000 HD
ENDBRANCH  27  30
ENDBRANCH  23  27
ENDBRANCH  20  21
ENDBRANCH   1  20
TORSDOF 9
