REMARK  Name = C:\Users\Maximilian\Desktop\Conformers\converted_pdb\conformers_pdb\T5342126_conf_29.pdb
REMARK  9 active torsions:
REMARK  status: ('A' for Active; 'I' for Inactive)
REMARK    1  A    between atoms: N6_1  and  C12_20
REMARK    2  A    between atoms: C18_5  and  C19_6
REMARK    3  A    between atoms: C19_6  and  N9_7
REMARK    4  A    between atoms: N9_7  and  C22_9
REMARK    5  A    between atoms: C22_9  and  N11_11
REMARK    6  A    between atoms: N11_11  and  C23_13
REMARK    7  A    between atoms: C12_20  and  C13_21
REMARK    8  A    between atoms: C15_23  and  S2_27
REMARK    9  A    between atoms: S2_27  and  N10_30
REMARK                            x       y       z     vdW  Elec       q    Type
REMARK                         _______ _______ _______ _____ _____    ______ ____
ROOT
ATOM      1  N6  UNK     0       0.953  -1.334  -0.021  0.00  0.00    +0.000 N 
ATOM      2  N7  UNK     0       0.349  -1.747   1.082  0.00  0.00    +0.000 NA
ATOM      3  N8  UNK     0      -0.446  -0.797   1.554  0.00  0.00    +0.000 NA
ATOM      4  C17 UNK     0       0.564  -0.073  -0.276  0.00  0.00    +0.000 A 
ATOM      5  C18 UNK     0      -0.334   0.253   0.715  0.00  0.00    +0.000 A 
ENDROOT
BRANCH   5   6
ATOM      6  C19 UNK     0      -1.017   1.570   0.910  0.00  0.00    +0.000 C 
BRANCH   6   7
ATOM      7  N9  UNK     0      -1.598   2.037  -0.347  0.00  0.00    +0.000 N 
ATOM      8  H38 UNK     0      -1.089   2.783  -0.872  0.00  0.00    +0.000 HD
BRANCH   7   9
ATOM      9  C22 UNK     0      -2.859   1.570  -0.853  0.00  0.00    +0.000 C 
ATOM     10  S3  UNK     0      -3.403   2.164  -2.283  0.00  0.00    +0.000 S 
BRANCH   9  11
ATOM     11  N11 UNK     0      -3.550   0.483  -0.212  0.00  0.00    +0.000 N 
ATOM     12  H41 UNK     0      -2.980  -0.266   0.239  0.00  0.00    +0.000 HD
BRANCH  11  13
ATOM     13  C23 UNK     0      -4.979   0.327  -0.207  0.00  0.00    +0.000 A 
ATOM     14  C24 UNK     0      -5.837   1.442  -0.205  0.00  0.00    +0.000 A 
ATOM     15  C26 UNK     0      -7.224   1.264  -0.173  0.00  0.00    +0.000 A 
ATOM     16  C28 UNK     0      -7.766  -0.024  -0.130  0.00  0.00    +0.000 A 
ATOM     17  I1  UNK     0      -9.858  -0.288  -0.081  0.00  0.00    +0.000 I 
ATOM     18  C27 UNK     0      -6.919  -1.136  -0.110  0.00  0.00    +0.000 A 
ATOM     19  C25 UNK     0      -5.532  -0.962  -0.141  0.00  0.00    +0.000 A 
ENDBRANCH  11  13
ENDBRANCH   9  11
ENDBRANCH   7   9
ENDBRANCH   6   7
ENDBRANCH   5   6
BRANCH   1  20
ATOM     20  C12 UNK     0       1.955  -2.101  -0.750  0.00  0.00    +0.000 C 
BRANCH  20  21
ATOM     21  C13 UNK     0       3.325  -1.789  -0.215  0.00  0.00    +0.000 A 
ATOM     22  C14 UNK     0       4.053  -0.704  -0.729  0.00  0.00    +0.000 A 
ATOM     23  C15 UNK     0       5.312  -0.382  -0.203  0.00  0.00    +0.000 A 
ATOM     24  C20 UNK     0       5.834  -1.136   0.856  0.00  0.00    +0.000 A 
ATOM     25  C21 UNK     0       5.106  -2.208   1.380  0.00  0.00    +0.000 A 
ATOM     26  C16 UNK     0       3.854  -2.531   0.852  0.00  0.00    +0.000 A 
BRANCH  23  27
ATOM     27  S2  UNK     0       6.212   0.988  -0.844  0.00  0.00    +0.000 S 
ATOM     28  O5  UNK     0       5.926   1.142  -2.312  0.00  0.00    +0.000 OA
ATOM     29  O4  UNK     0       7.687   0.761  -0.661  0.00  0.00    +0.000 OA
BRANCH  27  30
ATOM     30  N10 UNK     0       5.739   2.426  -0.010  0.00  0.00    +0.000 NA
ATOM     31  H40 UNK     0       5.991   2.293   0.995  0.00  0.00    +0.000 HD
ATOM     32  H39 UNK     0       6.339   3.201  -0.372  0.00  0.00    +0.000 HD
ENDBRANCH  27  30
ENDBRANCH  23  27
ENDBRANCH  20  21
ENDBRANCH   1  20
TORSDOF 9
