REMARK  Name = C:\Users\Maximilian\Desktop\Conformers\converted_pdb\conformers_pdb\T5342126_conf_42.pdb
REMARK  9 active torsions:
REMARK  status: ('A' for Active; 'I' for Inactive)
REMARK    1  A    between atoms: N6_1  and  C12_20
REMARK    2  A    between atoms: C18_5  and  C19_6
REMARK    3  A    between atoms: C19_6  and  N9_7
REMARK    4  A    between atoms: N9_7  and  C22_9
REMARK    5  A    between atoms: C22_9  and  N11_11
REMARK    6  A    between atoms: N11_11  and  C23_13
REMARK    7  A    between atoms: C12_20  and  C13_21
REMARK    8  A    between atoms: C15_23  and  S2_27
REMARK    9  A    between atoms: S2_27  and  N10_30
REMARK                            x       y       z     vdW  Elec       q    Type
REMARK                         _______ _______ _______ _____ _____    ______ ____
ROOT
ATOM      1  N6  UNK     0      -1.375   1.787   0.435  0.00  0.00    +0.000 N 
ATOM      2  N7  UNK     0      -1.368   2.188  -0.827  0.00  0.00    +0.000 NA
ATOM      3  N8  UNK     0      -0.173   1.991  -1.366  0.00  0.00    +0.000 NA
ATOM      4  C17 UNK     0      -0.161   1.297   0.736  0.00  0.00    +0.000 A 
ATOM      5  C18 UNK     0       0.591   1.425  -0.410  0.00  0.00    +0.000 A 
ENDROOT
BRANCH   5   6
ATOM      6  C19 UNK     0       2.036   1.082  -0.570  0.00  0.00    +0.000 C 
BRANCH   6   7
ATOM      7  N9  UNK     0       2.862   2.170  -0.049  0.00  0.00    +0.000 N 
ATOM      8  H38 UNK     0       2.667   3.140  -0.386  0.00  0.00    +0.000 HD
BRANCH   7   9
ATOM      9  C22 UNK     0       3.836   1.988   0.990  0.00  0.00    +0.000 C 
ATOM     10  S3  UNK     0       4.159   3.230   2.005  0.00  0.00    +0.000 S 
BRANCH   9  11
ATOM     11  N11 UNK     0       4.489   0.727   1.199  0.00  0.00    +0.000 N 
ATOM     12  H41 UNK     0       4.693   0.442   2.184  0.00  0.00    +0.000 HD
BRANCH  11  13
ATOM     13  C23 UNK     0       4.952  -0.124   0.136  0.00  0.00    +0.000 A 
ATOM     14  C24 UNK     0       5.236   0.388  -1.145  0.00  0.00    +0.000 A 
ATOM     15  C26 UNK     0       5.692  -0.461  -2.158  0.00  0.00    +0.000 A 
ATOM     16  C28 UNK     0       5.881  -1.822  -1.902  0.00  0.00    +0.000 A 
ATOM     17  I1  UNK     0       6.569  -3.099  -3.432  0.00  0.00    +0.000 I 
ATOM     18  C27 UNK     0       5.621  -2.334  -0.627  0.00  0.00    +0.000 A 
ATOM     19  C25 UNK     0       5.164  -1.488   0.388  0.00  0.00    +0.000 A 
ENDBRANCH  11  13
ENDBRANCH   9  11
ENDBRANCH   7   9
ENDBRANCH   6   7
ENDBRANCH   5   6
BRANCH   1  20
ATOM     20  C12 UNK     0      -2.547   1.808   1.302  0.00  0.00    +0.000 C 
BRANCH  20  21
ATOM     21  C13 UNK     0      -3.265   0.490   1.220  0.00  0.00    +0.000 A 
ATOM     22  C14 UNK     0      -4.189   0.252   0.190  0.00  0.00    +0.000 A 
ATOM     23  C15 UNK     0      -4.828  -0.991   0.085  0.00  0.00    +0.000 A 
ATOM     24  C20 UNK     0      -4.545  -1.998   1.018  0.00  0.00    +0.000 A 
ATOM     25  C21 UNK     0      -3.614  -1.770   2.035  0.00  0.00    +0.000 A 
ATOM     26  C16 UNK     0      -2.970  -0.534   2.134  0.00  0.00    +0.000 A 
BRANCH  23  27
ATOM     27  S2  UNK     0      -6.001  -1.275  -1.196  0.00  0.00    +0.000 S 
ATOM     28  O5  UNK     0      -6.041  -2.739  -1.536  0.00  0.00    +0.000 OA
ATOM     29  O4  UNK     0      -5.606  -0.506  -2.425  0.00  0.00    +0.000 OA
BRANCH  27  30
ATOM     30  N10 UNK     0      -7.564  -0.759  -0.669  0.00  0.00    +0.000 NA
ATOM     31  H40 UNK     0      -7.813  -1.341   0.162  0.00  0.00    +0.000 HD
ATOM     32  H39 UNK     0      -8.240  -1.009  -1.426  0.00  0.00    +0.000 HD
ENDBRANCH  27  30
ENDBRANCH  23  27
ENDBRANCH  20  21
ENDBRANCH   1  20
TORSDOF 9
