REMARK  Name = C:\Users\Maximilian\Desktop\Conformers\converted_pdb\conformers_pdb\T5342126_conf_63.pdb
REMARK  9 active torsions:
REMARK  status: ('A' for Active; 'I' for Inactive)
REMARK    1  A    between atoms: N6_1  and  C12_20
REMARK    2  A    between atoms: C18_5  and  C19_6
REMARK    3  A    between atoms: C19_6  and  N9_7
REMARK    4  A    between atoms: N9_7  and  C22_9
REMARK    5  A    between atoms: C22_9  and  N11_11
REMARK    6  A    between atoms: N11_11  and  C23_13
REMARK    7  A    between atoms: C12_20  and  C13_21
REMARK    8  A    between atoms: C15_23  and  S2_27
REMARK    9  A    between atoms: S2_27  and  N10_30
REMARK                            x       y       z     vdW  Elec       q    Type
REMARK                         _______ _______ _______ _____ _____    ______ ____
ROOT
ATOM      1  N6  UNK     0       1.781  -0.751   1.399  0.00  0.00    +0.000 N 
ATOM      2  N7  UNK     0       1.484   0.438   1.899  0.00  0.00    +0.000 NA
ATOM      3  N8  UNK     0       0.273   0.812   1.508  0.00  0.00    +0.000 NA
ATOM      4  C17 UNK     0       0.751  -1.170   0.646  0.00  0.00    +0.000 A 
ATOM      5  C18 UNK     0      -0.197  -0.173   0.716  0.00  0.00    +0.000 A 
ENDROOT
BRANCH   5   6
ATOM      6  C19 UNK     0      -1.561  -0.191   0.101  0.00  0.00    +0.000 C 
BRANCH   6   7
ATOM      7  N9  UNK     0      -2.520  -0.840   0.994  0.00  0.00    +0.000 N 
ATOM      8  H38 UNK     0      -2.180  -1.282   1.880  0.00  0.00    +0.000 HD
BRANCH   7   9
ATOM      9  C22 UNK     0      -3.930  -0.838   0.730  0.00  0.00    +0.000 C 
ATOM     10  S3  UNK     0      -4.937  -1.568   1.802  0.00  0.00    +0.000 S 
BRANCH   9  11
ATOM     11  N11 UNK     0      -4.436  -0.366  -0.532  0.00  0.00    +0.000 N 
ATOM     12  H41 UNK     0      -3.843  -0.503  -1.381  0.00  0.00    +0.000 HD
BRANCH  11  13
ATOM     13  C23 UNK     0      -5.731   0.234  -0.709  0.00  0.00    +0.000 A 
ATOM     14  C24 UNK     0      -6.388   0.106  -1.942  0.00  0.00    +0.000 A 
ATOM     15  C26 UNK     0      -7.636   0.703  -2.145  0.00  0.00    +0.000 A 
ATOM     16  C28 UNK     0      -8.232   1.446  -1.122  0.00  0.00    +0.000 A 
ATOM     17  I1  UNK     0     -10.113   2.348  -1.430  0.00  0.00    +0.000 I 
ATOM     18  C27 UNK     0      -7.574   1.599   0.103  0.00  0.00    +0.000 A 
ATOM     19  C25 UNK     0      -6.326   1.003   0.308  0.00  0.00    +0.000 A 
ENDBRANCH  11  13
ENDBRANCH   9  11
ENDBRANCH   7   9
ENDBRANCH   6   7
ENDBRANCH   5   6
BRANCH   1  20
ATOM     20  C12 UNK     0       3.059  -1.429   1.583  0.00  0.00    +0.000 C 
BRANCH  20  21
ATOM     21  C13 UNK     0       3.998  -1.055   0.471  0.00  0.00    +0.000 A 
ATOM     22  C14 UNK     0       4.783   0.105   0.568  0.00  0.00    +0.000 A 
ATOM     23  C15 UNK     0       5.626   0.481  -0.487  0.00  0.00    +0.000 A 
ATOM     24  C20 UNK     0       5.686  -0.310  -1.642  0.00  0.00    +0.000 A 
ATOM     25  C21 UNK     0       4.895  -1.457  -1.750  0.00  0.00    +0.000 A 
ATOM     26  C16 UNK     0       4.048  -1.826  -0.701  0.00  0.00    +0.000 A 
BRANCH  23  27
ATOM     27  S2  UNK     0       6.624   1.925  -0.348  0.00  0.00    +0.000 S 
ATOM     28  O5  UNK     0       5.905   2.962   0.469  0.00  0.00    +0.000 OA
ATOM     29  O4  UNK     0       6.895   2.492  -1.713  0.00  0.00    +0.000 OA
BRANCH  27  30
ATOM     30  N10 UNK     0       8.122   1.524   0.417  0.00  0.00    +0.000 NA
ATOM     31  H40 UNK     0       8.565   0.771  -0.157  0.00  0.00    +0.000 HD
ATOM     32  H39 UNK     0       7.888   1.099   1.342  0.00  0.00    +0.000 HD
ENDBRANCH  27  30
ENDBRANCH  23  27
ENDBRANCH  20  21
ENDBRANCH   1  20
TORSDOF 9
