REMARK  Name = C:\Users\Maximilian\Desktop\Conformers\converted_pdb\conformers_pdb\T5342126_conf_14.pdb
REMARK  9 active torsions:
REMARK  status: ('A' for Active; 'I' for Inactive)
REMARK    1  A    between atoms: N6_1  and  C12_20
REMARK    2  A    between atoms: C18_5  and  C19_6
REMARK    3  A    between atoms: C19_6  and  N9_7
REMARK    4  A    between atoms: N9_7  and  C22_9
REMARK    5  A    between atoms: C22_9  and  N11_11
REMARK    6  A    between atoms: N11_11  and  C23_13
REMARK    7  A    between atoms: C12_20  and  C13_21
REMARK    8  A    between atoms: C15_23  and  S2_27
REMARK    9  A    between atoms: S2_27  and  N10_30
REMARK                            x       y       z     vdW  Elec       q    Type
REMARK                         _______ _______ _______ _____ _____    ______ ____
ROOT
ATOM      1  N6  UNK     0      -0.878  -0.235  -0.508  0.00  0.00    +0.000 N 
ATOM      2  N7  UNK     0      -0.901   0.168  -1.769  0.00  0.00    +0.000 NA
ATOM      3  N8  UNK     0      -0.251   1.316  -1.895  0.00  0.00    +0.000 NA
ATOM      4  C17 UNK     0      -0.214   0.675   0.222  0.00  0.00    +0.000 A 
ATOM      5  C18 UNK     0       0.191   1.648  -0.665  0.00  0.00    +0.000 A 
ENDROOT
BRANCH   5   6
ATOM      6  C19 UNK     0       0.958   2.892  -0.343  0.00  0.00    +0.000 C 
BRANCH   6   7
ATOM      7  N9  UNK     0       2.190   2.562   0.373  0.00  0.00    +0.000 N 
ATOM      8  H38 UNK     0       2.244   2.811   1.386  0.00  0.00    +0.000 HD
BRANCH   7   9
ATOM      9  C22 UNK     0       3.295   1.853  -0.214  0.00  0.00    +0.000 C 
ATOM     10  S3  UNK     0       3.382   1.638  -1.844  0.00  0.00    +0.000 S 
BRANCH   9  11
ATOM     11  N11 UNK     0       4.416   1.510   0.617  0.00  0.00    +0.000 N 
ATOM     12  H41 UNK     0       4.594   2.102   1.459  0.00  0.00    +0.000 HD
BRANCH  11  13
ATOM     13  C23 UNK     0       5.305   0.408   0.368  0.00  0.00    +0.000 A 
ATOM     14  C24 UNK     0       4.843  -0.786  -0.216  0.00  0.00    +0.000 A 
ATOM     15  C26 UNK     0       5.720  -1.856  -0.422  0.00  0.00    +0.000 A 
ATOM     16  C28 UNK     0       7.059  -1.749  -0.036  0.00  0.00    +0.000 A 
ATOM     17  I1  UNK     0       8.380  -3.364  -0.346  0.00  0.00    +0.000 I 
ATOM     18  C27 UNK     0       7.520  -0.574   0.566  0.00  0.00    +0.000 A 
ATOM     19  C25 UNK     0       6.645   0.496   0.774  0.00  0.00    +0.000 A 
ENDBRANCH  11  13
ENDBRANCH   9  11
ENDBRANCH   7   9
ENDBRANCH   6   7
ENDBRANCH   5   6
BRANCH   1  20
ATOM     20  C12 UNK     0      -1.560  -1.424  -0.009  0.00  0.00    +0.000 C 
BRANCH  20  21
ATOM     21  C13 UNK     0      -2.960  -1.072   0.406  0.00  0.00    +0.000 A 
ATOM     22  C14 UNK     0      -4.002  -1.088  -0.535  0.00  0.00    +0.000 A 
ATOM     23  C15 UNK     0      -5.301  -0.716  -0.161  0.00  0.00    +0.000 A 
ATOM     24  C20 UNK     0      -5.558  -0.329   1.161  0.00  0.00    +0.000 A 
ATOM     25  C21 UNK     0      -4.521  -0.296   2.097  0.00  0.00    +0.000 A 
ATOM     26  C16 UNK     0      -3.225  -0.658   1.721  0.00  0.00    +0.000 A 
BRANCH  23  27
ATOM     27  S2  UNK     0      -6.607  -0.760  -1.341  0.00  0.00    +0.000 S 
ATOM     28  O5  UNK     0      -6.068  -0.439  -2.707  0.00  0.00    +0.000 OA
ATOM     29  O4  UNK     0      -7.652   0.260  -0.983  0.00  0.00    +0.000 OA
BRANCH  27  30
ATOM     30  N10 UNK     0      -7.316  -2.336  -1.356  0.00  0.00    +0.000 NA
ATOM     31  H40 UNK     0      -8.138  -2.296  -1.999  0.00  0.00    +0.000 HD
ATOM     32  H39 UNK     0      -7.691  -2.512  -0.397  0.00  0.00    +0.000 HD
ENDBRANCH  27  30
ENDBRANCH  23  27
ENDBRANCH  20  21
ENDBRANCH   1  20
TORSDOF 9
