REMARK  Name = C:\Users\Maximilian\Desktop\Conformers\converted_pdb\conformers_pdb\T5342126_conf_28.pdb
REMARK  9 active torsions:
REMARK  status: ('A' for Active; 'I' for Inactive)
REMARK    1  A    between atoms: N6_1  and  C12_20
REMARK    2  A    between atoms: C18_5  and  C19_6
REMARK    3  A    between atoms: C19_6  and  N9_7
REMARK    4  A    between atoms: N9_7  and  C22_9
REMARK    5  A    between atoms: C22_9  and  N11_11
REMARK    6  A    between atoms: N11_11  and  C23_13
REMARK    7  A    between atoms: C12_20  and  C13_21
REMARK    8  A    between atoms: C15_23  and  S2_27
REMARK    9  A    between atoms: S2_27  and  N10_30
REMARK                            x       y       z     vdW  Elec       q    Type
REMARK                         _______ _______ _______ _____ _____    ______ ____
ROOT
ATOM      1  N6  UNK     0      -0.600  -1.877   1.727  0.00  0.00    +0.000 N 
ATOM      2  N7  UNK     0       0.691  -2.167   1.719  0.00  0.00    +0.000 NA
ATOM      3  N8  UNK     0       1.360  -1.305   2.471  0.00  0.00    +0.000 NA
ATOM      4  C17 UNK     0      -0.791  -0.788   2.489  0.00  0.00    +0.000 A 
ATOM      5  C18 UNK     0       0.452  -0.439   2.966  0.00  0.00    +0.000 A 
ENDROOT
BRANCH   5   6
ATOM      6  C19 UNK     0       0.786   0.759   3.799  0.00  0.00    +0.000 C 
BRANCH   6   7
ATOM      7  N9  UNK     0       0.529   1.990   3.052  0.00  0.00    +0.000 N 
ATOM      8  H38 UNK     0      -0.207   2.641   3.411  0.00  0.00    +0.000 HD
BRANCH   7   9
ATOM      9  C22 UNK     0       1.187   2.301   1.815  0.00  0.00    +0.000 C 
ATOM     10  S3  UNK     0       0.755   3.653   0.993  0.00  0.00    +0.000 S 
BRANCH   9  11
ATOM     11  N11 UNK     0       2.299   1.513   1.364  0.00  0.00    +0.000 N 
ATOM     12  H41 UNK     0       3.023   1.249   2.069  0.00  0.00    +0.000 HD
BRANCH  11  13
ATOM     13  C23 UNK     0       2.428   0.997   0.027  0.00  0.00    +0.000 A 
ATOM     14  C24 UNK     0       3.675   0.521  -0.409  0.00  0.00    +0.000 A 
ATOM     15  C26 UNK     0       3.821  -0.010  -1.694  0.00  0.00    +0.000 A 
ATOM     16  C28 UNK     0       2.723  -0.072  -2.556  0.00  0.00    +0.000 A 
ATOM     17  I1  UNK     0       2.933  -0.879  -4.492  0.00  0.00    +0.000 I 
ATOM     18  C27 UNK     0       1.477   0.391  -2.129  0.00  0.00    +0.000 A 
ATOM     19  C25 UNK     0       1.322   0.907  -0.840  0.00  0.00    +0.000 A 
ENDBRANCH  11  13
ENDBRANCH   9  11
ENDBRANCH   7   9
ENDBRANCH   6   7
ENDBRANCH   5   6
BRANCH   1  20
ATOM     20  C12 UNK     0      -1.608  -2.579   0.941  0.00  0.00    +0.000 C 
BRANCH  20  21
ATOM     21  C13 UNK     0      -1.687  -1.992  -0.441  0.00  0.00    +0.000 A 
ATOM     22  C14 UNK     0      -2.317  -0.755  -0.643  0.00  0.00    +0.000 A 
ATOM     23  C15 UNK     0      -2.396  -0.199  -1.928  0.00  0.00    +0.000 A 
ATOM     24  C20 UNK     0      -1.834  -0.884  -3.015  0.00  0.00    +0.000 A 
ATOM     25  C21 UNK     0      -1.190  -2.108  -2.815  0.00  0.00    +0.000 A 
ATOM     26  C16 UNK     0      -1.111  -2.659  -1.534  0.00  0.00    +0.000 A 
BRANCH  23  27
ATOM     27  S2  UNK     0      -3.179   1.362  -2.159  0.00  0.00    +0.000 S 
ATOM     28  O5  UNK     0      -4.423   1.427  -1.317  0.00  0.00    +0.000 OA
ATOM     29  O4  UNK     0      -3.563   1.537  -3.602  0.00  0.00    +0.000 OA
BRANCH  27  30
ATOM     30  N10 UNK     0      -2.100   2.631  -1.697  0.00  0.00    +0.000 NA
ATOM     31  H40 UNK     0      -1.859   2.475  -0.691  0.00  0.00    +0.000 HD
ATOM     32  H39 UNK     0      -1.219   2.500  -2.245  0.00  0.00    +0.000 HD
ENDBRANCH  27  30
ENDBRANCH  23  27
ENDBRANCH  20  21
ENDBRANCH   1  20
TORSDOF 9
