REMARK  Name = C:\Users\Maximilian\Desktop\Conformers\converted_pdb\conformers_pdb\T5342126_conf_51.pdb
REMARK  9 active torsions:
REMARK  status: ('A' for Active; 'I' for Inactive)
REMARK    1  A    between atoms: N6_1  and  C12_20
REMARK    2  A    between atoms: C18_5  and  C19_6
REMARK    3  A    between atoms: C19_6  and  N9_7
REMARK    4  A    between atoms: N9_7  and  C22_9
REMARK    5  A    between atoms: C22_9  and  N11_11
REMARK    6  A    between atoms: N11_11  and  C23_13
REMARK    7  A    between atoms: C12_20  and  C13_21
REMARK    8  A    between atoms: C15_23  and  S2_27
REMARK    9  A    between atoms: S2_27  and  N10_30
REMARK                            x       y       z     vdW  Elec       q    Type
REMARK                         _______ _______ _______ _____ _____    ______ ____
ROOT
ATOM      1  N6  UNK     0      -1.700   1.481  -2.038  0.00  0.00    +0.000 N 
ATOM      2  N7  UNK     0      -1.601   0.765  -3.146  0.00  0.00    +0.000 NA
ATOM      3  N8  UNK     0      -0.561  -0.055  -3.072  0.00  0.00    +0.000 NA
ATOM      4  C17 UNK     0      -0.714   1.117  -1.201  0.00  0.00    +0.000 A 
ATOM      5  C18 UNK     0      -0.001   0.142  -1.861  0.00  0.00    +0.000 A 
ENDROOT
BRANCH   5   6
ATOM      6  C19 UNK     0       1.240  -0.539  -1.378  0.00  0.00    +0.000 C 
BRANCH   6   7
ATOM      7  N9  UNK     0       2.420   0.273  -1.671  0.00  0.00    +0.000 N 
ATOM      8  H38 UNK     0       2.315   1.149  -2.234  0.00  0.00    +0.000 HD
BRANCH   7   9
ATOM      9  C22 UNK     0       3.718  -0.054  -1.154  0.00  0.00    +0.000 C 
ATOM     10  S3  UNK     0       4.981   0.936  -1.501  0.00  0.00    +0.000 S 
BRANCH   9  11
ATOM     11  N11 UNK     0       3.946  -1.314  -0.497  0.00  0.00    +0.000 N 
ATOM     12  H41 UNK     0       3.396  -2.141  -0.819  0.00  0.00    +0.000 HD
BRANCH  11  13
ATOM     13  C23 UNK     0       4.925  -1.520   0.536  0.00  0.00    +0.000 A 
ATOM     14  C24 UNK     0       5.261  -0.496   1.440  0.00  0.00    +0.000 A 
ATOM     15  C26 UNK     0       6.196  -0.728   2.453  0.00  0.00    +0.000 A 
ATOM     16  C28 UNK     0       6.794  -1.985   2.581  0.00  0.00    +0.000 A 
ATOM     17  I1  UNK     0       8.203  -2.334   4.112  0.00  0.00    +0.000 I 
ATOM     18  C27 UNK     0       6.449  -3.014   1.700  0.00  0.00    +0.000 A 
ATOM     19  C25 UNK     0       5.513  -2.785   0.686  0.00  0.00    +0.000 A 
ENDBRANCH  11  13
ENDBRANCH   9  11
ENDBRANCH   7   9
ENDBRANCH   6   7
ENDBRANCH   5   6
BRANCH   1  20
ATOM     20  C12 UNK     0      -2.768   2.436  -1.764  0.00  0.00    +0.000 C 
BRANCH  20  21
ATOM     21  C13 UNK     0      -3.902   1.745  -1.061  0.00  0.00    +0.000 A 
ATOM     22  C14 UNK     0      -3.891   1.617   0.338  0.00  0.00    +0.000 A 
ATOM     23  C15 UNK     0      -4.924   0.935   0.995  0.00  0.00    +0.000 A 
ATOM     24  C20 UNK     0      -5.961   0.359   0.248  0.00  0.00    +0.000 A 
ATOM     25  C21 UNK     0      -5.968   0.472  -1.145  0.00  0.00    +0.000 A 
ATOM     26  C16 UNK     0      -4.940   1.157  -1.799  0.00  0.00    +0.000 A 
BRANCH  23  27
ATOM     27  S2  UNK     0      -4.891   0.765   2.748  0.00  0.00    +0.000 S 
ATOM     28  O5  UNK     0      -6.288   0.579   3.270  0.00  0.00    +0.000 OA
ATOM     29  O4  UNK     0      -4.308   2.005   3.365  0.00  0.00    +0.000 OA
BRANCH  27  30
ATOM     30  N10 UNK     0      -3.929  -0.604   3.179  0.00  0.00    +0.000 NA
ATOM     31  H40 UNK     0      -4.333  -1.429   2.683  0.00  0.00    +0.000 HD
ATOM     32  H39 UNK     0      -2.978  -0.448   2.776  0.00  0.00    +0.000 HD
ENDBRANCH  27  30
ENDBRANCH  23  27
ENDBRANCH  20  21
ENDBRANCH   1  20
TORSDOF 9
