REMARK  Name = C:\Users\Maximilian\Desktop\Conformers\converted_pdb\conformers_pdb\T5342126_conf_45.pdb
REMARK  9 active torsions:
REMARK  status: ('A' for Active; 'I' for Inactive)
REMARK    1  A    between atoms: N6_1  and  C12_20
REMARK    2  A    between atoms: C18_5  and  C19_6
REMARK    3  A    between atoms: C19_6  and  N9_7
REMARK    4  A    between atoms: N9_7  and  C22_9
REMARK    5  A    between atoms: C22_9  and  N11_11
REMARK    6  A    between atoms: N11_11  and  C23_13
REMARK    7  A    between atoms: C12_20  and  C13_21
REMARK    8  A    between atoms: C15_23  and  S2_27
REMARK    9  A    between atoms: S2_27  and  N10_30
REMARK                            x       y       z     vdW  Elec       q    Type
REMARK                         _______ _______ _______ _____ _____    ______ ____
ROOT
ATOM      1  N6  UNK     0      -1.486  -1.440   0.695  0.00  0.00    +0.000 N 
ATOM      2  N7  UNK     0      -1.231  -0.688   1.754  0.00  0.00    +0.000 NA
ATOM      3  N8  UNK     0       0.050  -0.347   1.778  0.00  0.00    +0.000 NA
ATOM      4  C17 UNK     0      -0.352  -1.588  -0.010  0.00  0.00    +0.000 A 
ATOM      5  C18 UNK     0       0.614  -0.889   0.679  0.00  0.00    +0.000 A 
ENDROOT
BRANCH   5   6
ATOM      6  C19 UNK     0       2.068  -0.804   0.339  0.00  0.00    +0.000 C 
BRANCH   6   7
ATOM      7  N9  UNK     0       2.787  -1.966   0.864  0.00  0.00    +0.000 N 
ATOM      8  H38 UNK     0       2.293  -2.625   1.508  0.00  0.00    +0.000 HD
BRANCH   7   9
ATOM      9  C22 UNK     0       4.088  -2.340   0.386  0.00  0.00    +0.000 C 
ATOM     10  S3  UNK     0       4.572  -3.897   0.521  0.00  0.00    +0.000 S 
BRANCH   9  11
ATOM     11  N11 UNK     0       4.911  -1.415  -0.339  0.00  0.00    +0.000 N 
ATOM     12  H41 UNK     0       5.376  -1.756  -1.211  0.00  0.00    +0.000 HD
BRANCH  11  13
ATOM     13  C23 UNK     0       5.226  -0.093   0.130  0.00  0.00    +0.000 A 
ATOM     14  C24 UNK     0       5.131   0.243   1.493  0.00  0.00    +0.000 A 
ATOM     15  C26 UNK     0       5.457   1.532   1.925  0.00  0.00    +0.000 A 
ATOM     16  C28 UNK     0       5.892   2.492   1.006  0.00  0.00    +0.000 A 
ATOM     17  I1  UNK     0       6.384   4.435   1.661  0.00  0.00    +0.000 I 
ATOM     18  C27 UNK     0       6.005   2.159  -0.347  0.00  0.00    +0.000 A 
ATOM     19  C25 UNK     0       5.679   0.871  -0.783  0.00  0.00    +0.000 A 
ENDBRANCH  11  13
ENDBRANCH   9  11
ENDBRANCH   7   9
ENDBRANCH   6   7
ENDBRANCH   5   6
BRANCH   1  20
ATOM     20  C12 UNK     0      -2.809  -1.935   0.333  0.00  0.00    +0.000 C 
BRANCH  20  21
ATOM     21  C13 UNK     0      -3.515  -0.923  -0.524  0.00  0.00    +0.000 A 
ATOM     22  C14 UNK     0      -4.303   0.078   0.067  0.00  0.00    +0.000 A 
ATOM     23  C15 UNK     0      -4.926   1.051  -0.728  0.00  0.00    +0.000 A 
ATOM     24  C20 UNK     0      -4.760   1.021  -2.119  0.00  0.00    +0.000 A 
ATOM     25  C21 UNK     0      -3.963   0.036  -2.710  0.00  0.00    +0.000 A 
ATOM     26  C16 UNK     0      -3.337  -0.928  -1.916  0.00  0.00    +0.000 A 
BRANCH  23  27
ATOM     27  S2  UNK     0      -5.935   2.288   0.015  0.00  0.00    +0.000 S 
ATOM     28  O5  UNK     0      -5.863   3.555  -0.791  0.00  0.00    +0.000 OA
ATOM     29  O4  UNK     0      -5.448   2.576   1.407  0.00  0.00    +0.000 OA
BRANCH  27  30
ATOM     30  N10 UNK     0      -7.572   1.739   0.080  0.00  0.00    +0.000 NA
ATOM     31  H40 UNK     0      -7.568   0.828   0.592  0.00  0.00    +0.000 HD
ATOM     32  H39 UNK     0      -7.863   1.530  -0.902  0.00  0.00    +0.000 HD
ENDBRANCH  27  30
ENDBRANCH  23  27
ENDBRANCH  20  21
ENDBRANCH   1  20
TORSDOF 9
