REMARK  Name = C:\Users\Maximilian\Desktop\Conformers\converted_pdb\conformers_pdb\T5342126_conf_4.pdb
REMARK  9 active torsions:
REMARK  status: ('A' for Active; 'I' for Inactive)
REMARK    1  A    between atoms: N6_1  and  C12_20
REMARK    2  A    between atoms: C18_5  and  C19_6
REMARK    3  A    between atoms: C19_6  and  N9_7
REMARK    4  A    between atoms: N9_7  and  C22_9
REMARK    5  A    between atoms: C22_9  and  N11_11
REMARK    6  A    between atoms: N11_11  and  C23_13
REMARK    7  A    between atoms: C12_20  and  C13_21
REMARK    8  A    between atoms: C15_23  and  S2_27
REMARK    9  A    between atoms: S2_27  and  N10_30
REMARK                            x       y       z     vdW  Elec       q    Type
REMARK                         _______ _______ _______ _____ _____    ______ ____
ROOT
ATOM      1  N6  UNK     0      -1.431  -1.551  -0.860  0.00  0.00    +0.000 N 
ATOM      2  N7  UNK     0      -0.666  -1.444  -1.936  0.00  0.00    +0.000 NA
ATOM      3  N8  UNK     0       0.354  -0.632  -1.696  0.00  0.00    +0.000 NA
ATOM      4  C17 UNK     0      -0.916  -0.777   0.110  0.00  0.00    +0.000 A 
ATOM      5  C18 UNK     0       0.218  -0.208  -0.423  0.00  0.00    +0.000 A 
ENDROOT
BRANCH   5   6
ATOM      6  C19 UNK     0       1.145   0.750   0.256  0.00  0.00    +0.000 C 
BRANCH   6   7
ATOM      7  N9  UNK     0       2.509   0.225   0.250  0.00  0.00    +0.000 N 
ATOM      8  H38 UNK     0       3.161   0.590  -0.480  0.00  0.00    +0.000 HD
BRANCH   7   9
ATOM      9  C22 UNK     0       2.992  -0.767   1.176  0.00  0.00    +0.000 C 
ATOM     10  S3  UNK     0       1.952  -1.608   2.129  0.00  0.00    +0.000 S 
BRANCH   9  11
ATOM     11  N11 UNK     0       4.377  -1.142   1.178  0.00  0.00    +0.000 N 
ATOM     12  H41 UNK     0       4.620  -2.124   1.440  0.00  0.00    +0.000 HD
BRANCH  11  13
ATOM     13  C23 UNK     0       5.451  -0.249   0.837  0.00  0.00    +0.000 A 
ATOM     14  C24 UNK     0       5.365   1.132   1.096  0.00  0.00    +0.000 A 
ATOM     15  C26 UNK     0       6.433   1.977   0.780  0.00  0.00    +0.000 A 
ATOM     16  C28 UNK     0       7.600   1.452   0.218  0.00  0.00    +0.000 A 
ATOM     17  I1  UNK     0       9.211   2.729  -0.256  0.00  0.00    +0.000 I 
ATOM     18  C27 UNK     0       7.702   0.078  -0.021  0.00  0.00    +0.000 A 
ATOM     19  C25 UNK     0       6.636  -0.769   0.294  0.00  0.00    +0.000 A 
ENDBRANCH  11  13
ENDBRANCH   9  11
ENDBRANCH   7   9
ENDBRANCH   6   7
ENDBRANCH   5   6
BRANCH   1  20
ATOM     20  C12 UNK     0      -2.676  -2.307  -0.804  0.00  0.00    +0.000 C 
BRANCH  20  21
ATOM     21  C13 UNK     0      -3.829  -1.418  -1.177  0.00  0.00    +0.000 A 
ATOM     22  C14 UNK     0      -4.470  -0.644  -0.197  0.00  0.00    +0.000 A 
ATOM     23  C15 UNK     0      -5.516   0.220  -0.548  0.00  0.00    +0.000 A 
ATOM     24  C20 UNK     0      -5.908   0.325  -1.889  0.00  0.00    +0.000 A 
ATOM     25  C21 UNK     0      -5.264  -0.433  -2.870  0.00  0.00    +0.000 A 
ATOM     26  C16 UNK     0      -4.224  -1.298  -2.519  0.00  0.00    +0.000 A 
BRANCH  23  27
ATOM     27  S2  UNK     0      -6.301   1.197   0.689  0.00  0.00    +0.000 S 
ATOM     28  O5  UNK     0      -6.417   0.403   1.960  0.00  0.00    +0.000 OA
ATOM     29  O4  UNK     0      -7.680   1.587   0.236  0.00  0.00    +0.000 OA
BRANCH  27  30
ATOM     30  N10 UNK     0      -5.365   2.621   0.974  0.00  0.00    +0.000 NA
ATOM     31  H40 UNK     0      -4.429   2.308   1.317  0.00  0.00    +0.000 HD
ATOM     32  H39 UNK     0      -5.819   3.133   1.764  0.00  0.00    +0.000 HD
ENDBRANCH  27  30
ENDBRANCH  23  27
ENDBRANCH  20  21
ENDBRANCH   1  20
TORSDOF 9
