REMARK  Name = C:\Users\Maximilian\Desktop\Conformers\converted_pdb\conformers_pdb\T5342126_conf_27.pdb
REMARK  9 active torsions:
REMARK  status: ('A' for Active; 'I' for Inactive)
REMARK    1  A    between atoms: N6_1  and  C12_20
REMARK    2  A    between atoms: C18_5  and  C19_6
REMARK    3  A    between atoms: C19_6  and  N9_7
REMARK    4  A    between atoms: N9_7  and  C22_9
REMARK    5  A    between atoms: C22_9  and  N11_11
REMARK    6  A    between atoms: N11_11  and  C23_13
REMARK    7  A    between atoms: C12_20  and  C13_21
REMARK    8  A    between atoms: C15_23  and  S2_27
REMARK    9  A    between atoms: S2_27  and  N10_30
REMARK                            x       y       z     vdW  Elec       q    Type
REMARK                         _______ _______ _______ _____ _____    ______ ____
ROOT
ATOM      1  N6  UNK     0       1.925  -0.273  -1.734  0.00  0.00    +0.000 N 
ATOM      2  N7  UNK     0       2.025  -1.588  -1.619  0.00  0.00    +0.000 NA
ATOM      3  N8  UNK     0       0.911  -2.089  -1.103  0.00  0.00    +0.000 NA
ATOM      4  C17 UNK     0       0.725   0.110  -1.268  0.00  0.00    +0.000 A 
ATOM      5  C18 UNK     0       0.091  -1.045  -0.867  0.00  0.00    +0.000 A 
ENDROOT
BRANCH   5   6
ATOM      6  C19 UNK     0      -1.303  -1.162  -0.337  0.00  0.00    +0.000 C 
BRANCH   6   7
ATOM      7  N9  UNK     0      -2.265  -1.251  -1.434  0.00  0.00    +0.000 N 
ATOM      8  H38 UNK     0      -1.918  -1.317  -2.419  0.00  0.00    +0.000 HD
BRANCH   7   9
ATOM      9  C22 UNK     0      -3.682  -1.186  -1.213  0.00  0.00    +0.000 C 
ATOM     10  S3  UNK     0      -4.689  -1.262  -2.507  0.00  0.00    +0.000 S 
BRANCH   9  11
ATOM     11  N11 UNK     0      -4.215  -1.233   0.123  0.00  0.00    +0.000 N 
ATOM     12  H41 UNK     0      -3.697  -1.790   0.839  0.00  0.00    +0.000 HD
BRANCH  11  13
ATOM     13  C23 UNK     0      -5.445  -0.605   0.524  0.00  0.00    +0.000 A 
ATOM     14  C24 UNK     0      -6.191  -1.159   1.576  0.00  0.00    +0.000 A 
ATOM     15  C26 UNK     0      -7.377  -0.551   1.998  0.00  0.00    +0.000 A 
ATOM     16  C28 UNK     0      -7.821   0.624   1.384  0.00  0.00    +0.000 A 
ATOM     17  I1  UNK     0      -9.608   1.542   2.025  0.00  0.00    +0.000 I 
ATOM     18  C27 UNK     0      -7.072   1.195   0.350  0.00  0.00    +0.000 A 
ATOM     19  C25 UNK     0      -5.886   0.589  -0.075  0.00  0.00    +0.000 A 
ENDBRANCH  11  13
ENDBRANCH   9  11
ENDBRANCH   7   9
ENDBRANCH   6   7
ENDBRANCH   5   6
BRANCH   1  20
ATOM     20  C12 UNK     0       2.994   0.598  -2.207  0.00  0.00    +0.000 C 
BRANCH  20  21
ATOM     21  C13 UNK     0       3.825   1.064  -1.044  0.00  0.00    +0.000 A 
ATOM     22  C14 UNK     0       4.885   0.272  -0.572  0.00  0.00    +0.000 A 
ATOM     23  C15 UNK     0       5.635   0.682   0.538  0.00  0.00    +0.000 A 
ATOM     24  C20 UNK     0       5.309   1.878   1.193  0.00  0.00    +0.000 A 
ATOM     25  C21 UNK     0       4.246   2.661   0.736  0.00  0.00    +0.000 A 
ATOM     26  C16 UNK     0       3.502   2.255  -0.375  0.00  0.00    +0.000 A 
BRANCH  23  27
ATOM     27  S2  UNK     0       6.953  -0.324   1.131  0.00  0.00    +0.000 S 
ATOM     28  O5  UNK     0       7.967   0.529   1.842  0.00  0.00    +0.000 OA
ATOM     29  O4  UNK     0       7.627  -1.010  -0.024  0.00  0.00    +0.000 OA
BRANCH  27  30
ATOM     30  N10 UNK     0       6.331  -1.509   2.224  0.00  0.00    +0.000 NA
ATOM     31  H40 UNK     0       5.834  -0.993   2.984  0.00  0.00    +0.000 HD
ATOM     32  H39 UNK     0       5.606  -2.052   1.704  0.00  0.00    +0.000 HD
ENDBRANCH  27  30
ENDBRANCH  23  27
ENDBRANCH  20  21
ENDBRANCH   1  20
TORSDOF 9
