REMARK  Name = C:\Users\Maximilian\Desktop\Conformers\converted_pdb\conformers_pdb\T5342126_conf_59.pdb
REMARK  9 active torsions:
REMARK  status: ('A' for Active; 'I' for Inactive)
REMARK    1  A    between atoms: N6_1  and  C12_20
REMARK    2  A    between atoms: C18_5  and  C19_6
REMARK    3  A    between atoms: C19_6  and  N9_7
REMARK    4  A    between atoms: N9_7  and  C22_9
REMARK    5  A    between atoms: C22_9  and  N11_11
REMARK    6  A    between atoms: N11_11  and  C23_13
REMARK    7  A    between atoms: C12_20  and  C13_21
REMARK    8  A    between atoms: C15_23  and  S2_27
REMARK    9  A    between atoms: S2_27  and  N10_30
REMARK                            x       y       z     vdW  Elec       q    Type
REMARK                         _______ _______ _______ _____ _____    ______ ____
ROOT
ATOM      1  N6  UNK     0       1.137   1.941   0.098  0.00  0.00    +0.000 N 
ATOM      2  N7  UNK     0       1.212   2.086   1.411  0.00  0.00    +0.000 NA
ATOM      3  N8  UNK     0       0.099   1.650   1.986  0.00  0.00    +0.000 NA
ATOM      4  C17 UNK     0      -0.046   1.379  -0.205  0.00  0.00    +0.000 A 
ATOM      5  C18 UNK     0      -0.704   1.217   0.993  0.00  0.00    +0.000 A 
ENDROOT
BRANCH   5   6
ATOM      6  C19 UNK     0      -2.024   0.546   1.201  0.00  0.00    +0.000 C 
BRANCH   6   7
ATOM      7  N9  UNK     0      -1.849  -0.901   1.336  0.00  0.00    +0.000 N 
ATOM      8  H38 UNK     0      -0.893  -1.313   1.236  0.00  0.00    +0.000 HD
BRANCH   7   9
ATOM      9  C22 UNK     0      -2.905  -1.756   1.801  0.00  0.00    +0.000 C 
ATOM     10  S3  UNK     0      -2.526  -3.160   2.552  0.00  0.00    +0.000 S 
BRANCH   9  11
ATOM     11  N11 UNK     0      -4.278  -1.348   1.738  0.00  0.00    +0.000 N 
ATOM     12  H41 UNK     0      -4.874  -1.507   2.581  0.00  0.00    +0.000 HD
BRANCH  11  13
ATOM     13  C23 UNK     0      -4.906  -0.852   0.543  0.00  0.00    +0.000 A 
ATOM     14  C24 UNK     0      -6.105  -0.129   0.643  0.00  0.00    +0.000 A 
ATOM     15  C26 UNK     0      -6.739   0.352  -0.506  0.00  0.00    +0.000 A 
ATOM     16  C28 UNK     0      -6.188   0.106  -1.767  0.00  0.00    +0.000 A 
ATOM     17  I1  UNK     0      -7.147   0.834  -3.499  0.00  0.00    +0.000 I 
ATOM     18  C27 UNK     0      -5.004  -0.628  -1.879  0.00  0.00    +0.000 A 
ATOM     19  C25 UNK     0      -4.367  -1.111  -0.732  0.00  0.00    +0.000 A 
ENDBRANCH  11  13
ENDBRANCH   9  11
ENDBRANCH   7   9
ENDBRANCH   6   7
ENDBRANCH   5   6
BRANCH   1  20
ATOM     20  C12 UNK     0       2.226   2.228  -0.828  0.00  0.00    +0.000 C 
BRANCH  20  21
ATOM     21  C13 UNK     0       3.055   0.993  -1.037  0.00  0.00    +0.000 A 
ATOM     22  C14 UNK     0       4.088   0.676  -0.141  0.00  0.00    +0.000 A 
ATOM     23  C15 UNK     0       4.833  -0.501  -0.304  0.00  0.00    +0.000 A 
ATOM     24  C20 UNK     0       4.543  -1.362  -1.371  0.00  0.00    +0.000 A 
ATOM     25  C21 UNK     0       3.506  -1.059  -2.256  0.00  0.00    +0.000 A 
ATOM     26  C16 UNK     0       2.759   0.110  -2.088  0.00  0.00    +0.000 A 
BRANCH  23  27
ATOM     27  S2  UNK     0       6.137  -0.879   0.816  0.00  0.00    +0.000 S 
ATOM     28  O5  UNK     0       6.374  -2.364   0.844  0.00  0.00    +0.000 OA
ATOM     29  O4  UNK     0       5.765  -0.424   2.199  0.00  0.00    +0.000 OA
BRANCH  27  30
ATOM     30  N10 UNK     0       7.581  -0.076   0.307  0.00  0.00    +0.000 NA
ATOM     31  H40 UNK     0       7.393   0.950   0.359  0.00  0.00    +0.000 HD
ATOM     32  H39 UNK     0       8.314  -0.284   1.021  0.00  0.00    +0.000 HD
ENDBRANCH  27  30
ENDBRANCH  23  27
ENDBRANCH  20  21
ENDBRANCH   1  20
TORSDOF 9
