REMARK  Name = C:\Users\Maximilian\Desktop\Conformers\converted_pdb\conformers_pdb\TAK_242_conf_49.pdb
REMARK  25 active torsions:
REMARK  status: ('A' for Active; 'I' for Inactive)
REMARK    1  A    between atoms: C25_1  and  N10_2
REMARK    2  A    between atoms: C25_1  and  C27_26
REMARK    3  A    between atoms: C25_1  and  C26_53
REMARK    4  A    between atoms: C31_4  and  C30_6
REMARK    5  A    between atoms: C30_6  and  C32_7
REMARK    6  A    between atoms: C30_6  and  N11_15
REMARK    7  A    between atoms: C32_7  and  C35_8
REMARK    8  A    between atoms: C35_8  and  C44_9
REMARK    9  A    between atoms: C41_16  and  C36_19
REMARK   10  A    between atoms: C36_19  and  N12_20
REMARK   11  A    between atoms: N9_27  and  C21_30
REMARK   12  A    between atoms: C21_30  and  C24_31
REMARK   13  A    between atoms: C21_30  and  C20_38
REMARK   14  A    between atoms: C24_31  and  C29_32
REMARK   15  A    between atoms: N8_39  and  C15_42
REMARK   16  A    between atoms: C15_42  and  C18_43
REMARK   17  A    between atoms: C15_42  and  C16_47
REMARK   18  A    between atoms: C18_43  and  C19_44
REMARK   19  A    between atoms: C19_44  and  C23_45
REMARK   20  A    between atoms: C19_44  and  C22_46
REMARK   21  A    between atoms: C16_47  and  C13_49
REMARK   22  A    between atoms: C13_49  and  C17_52
REMARK   23  A    between atoms: C26_53  and  C28_54
REMARK   24  A    between atoms: C28_54  and  C33_55
REMARK   25  A    between atoms: C28_54  and  C34_56
REMARK                            x       y       z     vdW  Elec       q    Type
REMARK                         _______ _______ _______ _____ _____    ______ ____
ROOT
ATOM      1  C25 UNK     0      -0.178  -1.325  -0.803  0.00  0.00    +0.000 C 
ENDROOT
BRANCH   1   2
ATOM      2  N10 UNK     0      -1.513  -1.489  -0.204  0.00  0.00    +0.000 N 
ATOM      3  H77 UNK     0      -1.518  -1.815   0.788  0.00  0.00    +0.000 HD
ATOM      4  C31 UNK     0      -2.748  -0.967  -0.738  0.00  0.00    +0.000 C 
ATOM      5  O6  UNK     0      -2.908  -0.859  -1.983  0.00  0.00    +0.000 OA
BRANCH   4   6
ATOM      6  C30 UNK     0      -3.864  -0.525   0.190  0.00  0.00    +0.000 C 
BRANCH   6   7
ATOM      7  N11 UNK     0      -5.045  -0.119  -0.585  0.00  0.00    +0.000 N 
ATOM      8  C41 UNK     0      -5.124   1.155  -1.240  0.00  0.00    +0.000 C 
ATOM      9  O7  UNK     0      -4.358   2.095  -0.897  0.00  0.00    +0.000 OA
ATOM     10  H87 UNK     0      -5.747  -0.847  -0.850  0.00  0.00    +0.000 HD
BRANCH   8  11
ATOM     11  C36 UNK     0      -6.087   1.364  -2.374  0.00  0.00    +0.000 C 
BRANCH  11  12
ATOM     12  N12 UNK     0      -6.954   2.534  -2.130  0.00  0.00    +0.000 NA
ATOM     13  C39 UNK     0      -7.720   2.856  -3.350  0.00  0.00    +0.000 C 
ATOM     14  C42 UNK     0      -8.606   4.098  -3.115  0.00  0.00    +0.000 C 
ATOM     15  O5  UNK     0      -8.680   4.462  -1.748  0.00  0.00    +0.000 OA
ATOM     16  C43 UNK     0      -9.016   3.330  -0.970  0.00  0.00    +0.000 C 
ATOM     17  C40 UNK     0      -7.875   2.294  -0.993  0.00  0.00    +0.000 C 
ENDBRANCH  11  12
ENDBRANCH   8  11
ENDBRANCH   6   7
BRANCH   6  18
ATOM     18  C32 UNK     0      -4.250  -1.592   1.241  0.00  0.00    +0.000 C 
BRANCH  18  19
ATOM     19  C35 UNK     0      -4.499  -2.995   0.659  0.00  0.00    +0.000 C 
BRANCH  19  20
ATOM     20  C44 UNK     0      -4.859  -3.957   1.759  0.00  0.00    +0.000 A 
ATOM     21  C49 UNK     0      -3.848  -4.599   2.495  0.00  0.00    +0.000 A 
ATOM     22  C51 UNK     0      -4.178  -5.459   3.547  0.00  0.00    +0.000 A 
ATOM     23  C52 UNK     0      -5.519  -5.676   3.877  0.00  0.00    +0.000 A 
ATOM     24  C50 UNK     0      -6.529  -5.032   3.157  0.00  0.00    +0.000 A 
ATOM     25  C48 UNK     0      -6.203  -4.171   2.105  0.00  0.00    +0.000 A 
ENDBRANCH  19  20
ENDBRANCH  18  19
ENDBRANCH   6  18
ENDBRANCH   4   6
ENDBRANCH   1   2
BRANCH   1  26
ATOM     26  C27 UNK     0       0.416  -0.022  -0.334  0.00  0.00    +0.000 C 
ATOM     27  N9  UNK     0       1.397  -0.027   0.714  0.00  0.00    +0.000 N 
ATOM     28  H73 UNK     0       1.653  -0.944   1.143  0.00  0.00    +0.000 HD
ATOM     29  O4  UNK     0       0.014   1.066  -0.828  0.00  0.00    +0.000 OA
BRANCH  27  30
ATOM     30  C21 UNK     0       2.140   1.164   1.131  0.00  0.00    +0.000 C 
BRANCH  30  31
ATOM     31  C20 UNK     0       3.537   1.112   0.562  0.00  0.00    +0.000 C 
ATOM     32  N8  UNK     0       4.415   0.015   0.873  0.00  0.00    +0.000 N 
ATOM     33  H62 UNK     0       4.040  -0.792   1.424  0.00  0.00    +0.000 HD
ATOM     34  O3  UNK     0       3.933   2.055  -0.176  0.00  0.00    +0.000 OA
BRANCH  32  35
ATOM     35  C15 UNK     0       5.807  -0.048   0.413  0.00  0.00    +0.000 C 
BRANCH  35  36
ATOM     36  C16 UNK     0       6.718  -0.279   1.598  0.00  0.00    +0.000 C 
ATOM     37  O2  UNK     0       6.560  -1.280   2.281  0.00  0.00    +0.000 OA
BRANCH  36  38
ATOM     38  C13 UNK     0       7.815   0.700   1.955  0.00  0.00    +0.000 C 
ATOM     39  O1  UNK     0       8.679   0.203   2.952  0.00  0.00    +0.000 OA
ATOM     40  C14 UNK     0       7.825   1.263   3.330  0.00  0.00    +0.000 C 
ATOM     41  C17 UNK     0       8.578   1.452   0.866  0.00  0.00    +0.000 C 
ENDBRANCH  36  38
ENDBRANCH  35  36
BRANCH  35  42
ATOM     42  C18 UNK     0       5.984  -1.190  -0.610  0.00  0.00    +0.000 C 
BRANCH  42  43
ATOM     43  C19 UNK     0       5.179  -0.991  -1.914  0.00  0.00    +0.000 C 
ATOM     44  C23 UNK     0       5.174  -2.289  -2.732  0.00  0.00    +0.000 C 
ATOM     45  C22 UNK     0       5.747   0.154  -2.771  0.00  0.00    +0.000 C 
ENDBRANCH  42  43
ENDBRANCH  35  42
ENDBRANCH  32  35
ENDBRANCH  30  31
BRANCH  30  46
ATOM     46  C24 UNK     0       2.161   1.248   2.669  0.00  0.00    +0.000 C 
BRANCH  46  47
ATOM     47  C29 UNK     0       2.851   2.499   3.151  0.00  0.00    +0.000 A 
ATOM     48  C37 UNK     0       2.158   3.721   3.205  0.00  0.00    +0.000 A 
ATOM     49  C45 UNK     0       2.814   4.884   3.624  0.00  0.00    +0.000 A 
ATOM     50  C47 UNK     0       4.166   4.835   3.984  0.00  0.00    +0.000 A 
ATOM     51  C46 UNK     0       4.864   3.627   3.917  0.00  0.00    +0.000 A 
ATOM     52  C38 UNK     0       4.211   2.463   3.503  0.00  0.00    +0.000 A 
ENDBRANCH  46  47
ENDBRANCH  30  46
ENDBRANCH  27  30
ENDBRANCH   1  26
BRANCH   1  53
ATOM     53  C26 UNK     0      -0.169  -1.481  -2.343  0.00  0.00    +0.000 C 
BRANCH  53  54
ATOM     54  C28 UNK     0       1.255  -1.628  -2.947  0.00  0.00    +0.000 C 
ATOM     55  C33 UNK     0       1.833  -0.264  -3.354  0.00  0.00    +0.000 C 
ATOM     56  C34 UNK     0       1.225  -2.555  -4.168  0.00  0.00    +0.000 C 
ENDBRANCH  53  54
ENDBRANCH   1  53
TORSDOF 20
