REMARK  Name = C:\Users\Maximilian\Desktop\Conformers\converted_pdb\conformers_pdb\TAK_242_conf_32.pdb
REMARK  25 active torsions:
REMARK  status: ('A' for Active; 'I' for Inactive)
REMARK    1  A    between atoms: C25_1  and  N10_2
REMARK    2  A    between atoms: C25_1  and  C27_26
REMARK    3  A    between atoms: C25_1  and  C26_53
REMARK    4  A    between atoms: C31_4  and  C30_6
REMARK    5  A    between atoms: C30_6  and  C32_7
REMARK    6  A    between atoms: C30_6  and  N11_15
REMARK    7  A    between atoms: C32_7  and  C35_8
REMARK    8  A    between atoms: C35_8  and  C44_9
REMARK    9  A    between atoms: C41_16  and  C36_19
REMARK   10  A    between atoms: C36_19  and  N12_20
REMARK   11  A    between atoms: N9_27  and  C21_30
REMARK   12  A    between atoms: C21_30  and  C24_31
REMARK   13  A    between atoms: C21_30  and  C20_38
REMARK   14  A    between atoms: C24_31  and  C29_32
REMARK   15  A    between atoms: N8_39  and  C15_42
REMARK   16  A    between atoms: C15_42  and  C18_43
REMARK   17  A    between atoms: C15_42  and  C16_47
REMARK   18  A    between atoms: C18_43  and  C19_44
REMARK   19  A    between atoms: C19_44  and  C23_45
REMARK   20  A    between atoms: C19_44  and  C22_46
REMARK   21  A    between atoms: C16_47  and  C13_49
REMARK   22  A    between atoms: C13_49  and  C17_52
REMARK   23  A    between atoms: C26_53  and  C28_54
REMARK   24  A    between atoms: C28_54  and  C33_55
REMARK   25  A    between atoms: C28_54  and  C34_56
REMARK                            x       y       z     vdW  Elec       q    Type
REMARK                         _______ _______ _______ _____ _____    ______ ____
ROOT
ATOM      1  C25 UNK     0      -1.005   0.558  -1.790  0.00  0.00    +0.000 C 
ENDROOT
BRANCH   1   2
ATOM      2  N10 UNK     0      -2.287   1.018  -1.240  0.00  0.00    +0.000 N 
ATOM      3  H77 UNK     0      -2.595   2.004  -1.399  0.00  0.00    +0.000 HD
ATOM      4  C31 UNK     0      -3.179   0.148  -0.529  0.00  0.00    +0.000 C 
ATOM      5  O6  UNK     0      -2.915  -1.083  -0.431  0.00  0.00    +0.000 OA
BRANCH   4   6
ATOM      6  C30 UNK     0      -4.396   0.712   0.159  0.00  0.00    +0.000 C 
BRANCH   6   7
ATOM      7  N11 UNK     0      -5.482  -0.271   0.123  0.00  0.00    +0.000 N 
ATOM      8  C41 UNK     0      -6.579  -0.196  -0.800  0.00  0.00    +0.000 C 
ATOM      9  O7  UNK     0      -6.668   0.761  -1.617  0.00  0.00    +0.000 OA
ATOM     10  H87 UNK     0      -5.414  -1.111   0.740  0.00  0.00    +0.000 HD
BRANCH   8  11
ATOM     11  C36 UNK     0      -7.625  -1.266  -0.796  0.00  0.00    +0.000 C 
BRANCH  11  12
ATOM     12  N12 UNK     0      -7.020  -2.573  -1.123  0.00  0.00    +0.000 NA
ATOM     13  C39 UNK     0      -7.910  -3.669  -0.699  0.00  0.00    +0.000 C 
ATOM     14  C42 UNK     0      -7.389  -5.029  -1.200  0.00  0.00    +0.000 C 
ATOM     15  O5  UNK     0      -6.093  -4.908  -1.751  0.00  0.00    +0.000 OA
ATOM     16  C43 UNK     0      -6.138  -4.069  -2.891  0.00  0.00    +0.000 C 
ATOM     17  C40 UNK     0      -6.743  -2.686  -2.568  0.00  0.00    +0.000 C 
ENDBRANCH  11  12
ENDBRANCH   8  11
ENDBRANCH   6   7
BRANCH   6  18
ATOM     18  C32 UNK     0      -4.081   1.075   1.623  0.00  0.00    +0.000 C 
BRANCH  18  19
ATOM     19  C35 UNK     0      -3.170   2.306   1.734  0.00  0.00    +0.000 C 
BRANCH  19  20
ATOM     20  C44 UNK     0      -2.930   2.668   3.175  0.00  0.00    +0.000 A 
ATOM     21  C49 UNK     0      -1.866   2.087   3.884  0.00  0.00    +0.000 A 
ATOM     22  C51 UNK     0      -1.671   2.395   5.235  0.00  0.00    +0.000 A 
ATOM     23  C52 UNK     0      -2.542   3.270   5.888  0.00  0.00    +0.000 A 
ATOM     24  C50 UNK     0      -3.617   3.834   5.193  0.00  0.00    +0.000 A 
ATOM     25  C48 UNK     0      -3.814   3.533   3.842  0.00  0.00    +0.000 A 
ENDBRANCH  19  20
ENDBRANCH  18  19
ENDBRANCH   6  18
ENDBRANCH   4   6
ENDBRANCH   1   2
BRANCH   1  26
ATOM     26  C27 UNK     0      -0.087   0.056  -0.703  0.00  0.00    +0.000 C 
ATOM     27  N9  UNK     0       0.867  -0.973  -0.997  0.00  0.00    +0.000 N 
ATOM     28  H73 UNK     0       0.965  -1.292  -1.988  0.00  0.00    +0.000 HD
ATOM     29  O4  UNK     0      -0.144   0.556   0.456  0.00  0.00    +0.000 OA
BRANCH  27  30
ATOM     30  C21 UNK     0       1.686  -1.603   0.044  0.00  0.00    +0.000 C 
BRANCH  30  31
ATOM     31  C20 UNK     0       2.786  -0.671   0.479  0.00  0.00    +0.000 C 
ATOM     32  N8  UNK     0       3.595   0.001  -0.497  0.00  0.00    +0.000 N 
ATOM     33  H62 UNK     0       3.183   0.184  -1.436  0.00  0.00    +0.000 HD
ATOM     34  O3  UNK     0       3.043  -0.551   1.708  0.00  0.00    +0.000 OA
BRANCH  32  35
ATOM     35  C15 UNK     0       4.910   0.568  -0.187  0.00  0.00    +0.000 C 
BRANCH  35  36
ATOM     36  C16 UNK     0       5.919   0.096  -1.222  0.00  0.00    +0.000 C 
ATOM     37  O2  UNK     0       6.997  -0.336  -0.840  0.00  0.00    +0.000 OA
BRANCH  36  38
ATOM     38  C13 UNK     0       5.607   0.032  -2.701  0.00  0.00    +0.000 C 
ATOM     39  O1  UNK     0       6.716   0.422  -3.476  0.00  0.00    +0.000 OA
ATOM     40  C14 UNK     0       5.594   1.274  -3.510  0.00  0.00    +0.000 C 
ATOM     41  C17 UNK     0       4.943  -1.220  -3.275  0.00  0.00    +0.000 C 
ENDBRANCH  36  38
ENDBRANCH  35  36
BRANCH  35  42
ATOM     42  C18 UNK     0       4.783   2.107  -0.091  0.00  0.00    +0.000 C 
BRANCH  42  43
ATOM     43  C19 UNK     0       5.917   2.861   0.650  0.00  0.00    +0.000 C 
ATOM     44  C23 UNK     0       7.258   2.838  -0.095  0.00  0.00    +0.000 C 
ATOM     45  C22 UNK     0       6.083   2.402   2.106  0.00  0.00    +0.000 C 
ENDBRANCH  42  43
ENDBRANCH  35  42
ENDBRANCH  32  35
ENDBRANCH  30  31
BRANCH  30  46
ATOM     46  C24 UNK     0       2.279  -2.928  -0.474  0.00  0.00    +0.000 C 
BRANCH  46  47
ATOM     47  C29 UNK     0       3.035  -3.663   0.603  0.00  0.00    +0.000 A 
ATOM     48  C37 UNK     0       4.419  -3.466   0.755  0.00  0.00    +0.000 A 
ATOM     49  C45 UNK     0       5.114  -4.107   1.786  0.00  0.00    +0.000 A 
ATOM     50  C47 UNK     0       4.434  -4.943   2.675  0.00  0.00    +0.000 A 
ATOM     51  C46 UNK     0       3.057  -5.145   2.530  0.00  0.00    +0.000 A 
ATOM     52  C38 UNK     0       2.358  -4.499   1.504  0.00  0.00    +0.000 A 
ENDBRANCH  46  47
ENDBRANCH  30  46
ENDBRANCH  27  30
ENDBRANCH   1  26
BRANCH   1  53
ATOM     53  C26 UNK     0      -0.331   1.659  -2.642  0.00  0.00    +0.000 C 
BRANCH  53  54
ATOM     54  C28 UNK     0       0.063   2.942  -1.853  0.00  0.00    +0.000 C 
ATOM     55  C33 UNK     0      -0.242   4.200  -2.676  0.00  0.00    +0.000 C 
ATOM     56  C34 UNK     0       1.544   2.928  -1.460  0.00  0.00    +0.000 C 
ENDBRANCH  53  54
ENDBRANCH   1  53
TORSDOF 20
