REMARK  Name = C:\Users\Maximilian\Desktop\Conformers\converted_pdb\conformers_pdb\TAK_242_conf_86.pdb
REMARK  25 active torsions:
REMARK  status: ('A' for Active; 'I' for Inactive)
REMARK    1  A    between atoms: C25_1  and  N10_2
REMARK    2  A    between atoms: C25_1  and  C27_26
REMARK    3  A    between atoms: C25_1  and  C26_53
REMARK    4  A    between atoms: C31_4  and  C30_6
REMARK    5  A    between atoms: C30_6  and  C32_7
REMARK    6  A    between atoms: C30_6  and  N11_15
REMARK    7  A    between atoms: C32_7  and  C35_8
REMARK    8  A    between atoms: C35_8  and  C44_9
REMARK    9  A    between atoms: C41_16  and  C36_19
REMARK   10  A    between atoms: C36_19  and  N12_20
REMARK   11  A    between atoms: N9_27  and  C21_30
REMARK   12  A    between atoms: C21_30  and  C24_31
REMARK   13  A    between atoms: C21_30  and  C20_38
REMARK   14  A    between atoms: C24_31  and  C29_32
REMARK   15  A    between atoms: N8_39  and  C15_42
REMARK   16  A    between atoms: C15_42  and  C18_43
REMARK   17  A    between atoms: C15_42  and  C16_47
REMARK   18  A    between atoms: C18_43  and  C19_44
REMARK   19  A    between atoms: C19_44  and  C23_45
REMARK   20  A    between atoms: C19_44  and  C22_46
REMARK   21  A    between atoms: C16_47  and  C13_49
REMARK   22  A    between atoms: C13_49  and  C17_52
REMARK   23  A    between atoms: C26_53  and  C28_54
REMARK   24  A    between atoms: C28_54  and  C33_55
REMARK   25  A    between atoms: C28_54  and  C34_56
REMARK                            x       y       z     vdW  Elec       q    Type
REMARK                         _______ _______ _______ _____ _____    ______ ____
ROOT
ATOM      1  C25 UNK     0       1.023  -1.071  -2.165  0.00  0.00    +0.000 C 
ENDROOT
BRANCH   1   2
ATOM      2  N10 UNK     0       1.676  -1.560  -0.949  0.00  0.00    +0.000 N 
ATOM      3  H77 UNK     0       1.327  -2.449  -0.522  0.00  0.00    +0.000 HD
ATOM      4  C31 UNK     0       2.658  -0.805  -0.226  0.00  0.00    +0.000 C 
ATOM      5  O6  UNK     0       3.202   0.205  -0.752  0.00  0.00    +0.000 OA
BRANCH   4   6
ATOM      6  C30 UNK     0       3.023  -1.213   1.179  0.00  0.00    +0.000 C 
BRANCH   6   7
ATOM      7  N11 UNK     0       4.467  -1.087   1.403  0.00  0.00    +0.000 N 
ATOM      8  C41 UNK     0       5.409  -1.927   0.718  0.00  0.00    +0.000 C 
ATOM      9  O7  UNK     0       5.020  -2.719  -0.183  0.00  0.00    +0.000 OA
ATOM     10  H87 UNK     0       4.827  -0.455   2.152  0.00  0.00    +0.000 HD
BRANCH   8  11
ATOM     11  C36 UNK     0       6.865  -1.888   1.079  0.00  0.00    +0.000 C 
BRANCH  11  12
ATOM     12  N12 UNK     0       7.427  -0.529   0.902  0.00  0.00    +0.000 NA
ATOM     13  C39 UNK     0       8.757  -0.396   1.543  0.00  0.00    +0.000 C 
ATOM     14  C42 UNK     0       9.920  -0.698   0.574  0.00  0.00    +0.000 C 
ATOM     15  O5  UNK     0       9.497  -1.549  -0.469  0.00  0.00    +0.000 OA
ATOM     16  C43 UNK     0       8.581  -0.863  -1.307  0.00  0.00    +0.000 C 
ATOM     17  C40 UNK     0       7.481  -0.114  -0.519  0.00  0.00    +0.000 C 
ENDBRANCH  11  12
ENDBRANCH   8  11
ENDBRANCH   6   7
BRANCH   6  18
ATOM     18  C32 UNK     0       2.199  -0.435   2.232  0.00  0.00    +0.000 C 
BRANCH  18  19
ATOM     19  C35 UNK     0       2.373   1.094   2.177  0.00  0.00    +0.000 C 
BRANCH  19  20
ATOM     20  C44 UNK     0       1.507   1.764   3.212  0.00  0.00    +0.000 A 
ATOM     21  C49 UNK     0       0.255   2.298   2.856  0.00  0.00    +0.000 A 
ATOM     22  C51 UNK     0      -0.568   2.870   3.832  0.00  0.00    +0.000 A 
ATOM     23  C52 UNK     0      -0.151   2.914   5.166  0.00  0.00    +0.000 A 
ATOM     24  C50 UNK     0       1.098   2.401   5.523  0.00  0.00    +0.000 A 
ATOM     25  C48 UNK     0       1.925   1.825   4.551  0.00  0.00    +0.000 A 
ENDBRANCH  19  20
ENDBRANCH  18  19
ENDBRANCH   6  18
ENDBRANCH   4   6
ENDBRANCH   1   2
BRANCH   1  26
ATOM     26  C27 UNK     0      -0.309  -0.463  -1.809  0.00  0.00    +0.000 C 
ATOM     27  N9  UNK     0      -1.251  -1.192  -1.009  0.00  0.00    +0.000 N 
ATOM     28  H73 UNK     0      -0.934  -2.043  -0.505  0.00  0.00    +0.000 HD
ATOM     29  O4  UNK     0      -0.601   0.683  -2.241  0.00  0.00    +0.000 OA
BRANCH  27  30
ATOM     30  C21 UNK     0      -2.655  -0.785  -0.886  0.00  0.00    +0.000 C 
BRANCH  30  31
ATOM     31  C20 UNK     0      -2.818   0.190   0.248  0.00  0.00    +0.000 C 
ATOM     32  N8  UNK     0      -4.038   0.936   0.376  0.00  0.00    +0.000 N 
ATOM     33  H62 UNK     0      -4.789   0.795  -0.343  0.00  0.00    +0.000 HD
ATOM     34  O3  UNK     0      -1.889   0.335   1.093  0.00  0.00    +0.000 OA
BRANCH  32  35
ATOM     35  C15 UNK     0      -4.214   1.986   1.381  0.00  0.00    +0.000 C 
BRANCH  35  36
ATOM     36  C16 UNK     0      -3.846   3.324   0.774  0.00  0.00    +0.000 C 
ATOM     37  O2  UNK     0      -2.995   4.007   1.318  0.00  0.00    +0.000 OA
BRANCH  36  38
ATOM     38  C13 UNK     0      -4.422   3.788  -0.541  0.00  0.00    +0.000 C 
ATOM     39  O1  UNK     0      -4.683   5.169  -0.548  0.00  0.00    +0.000 OA
ATOM     40  C14 UNK     0      -5.804   4.320  -0.565  0.00  0.00    +0.000 C 
ATOM     41  C17 UNK     0      -3.806   3.316  -1.855  0.00  0.00    +0.000 C 
ENDBRANCH  36  38
ENDBRANCH  35  36
BRANCH  35  42
ATOM     42  C18 UNK     0      -5.662   1.950   1.918  0.00  0.00    +0.000 C 
BRANCH  42  43
ATOM     43  C19 UNK     0      -5.940   2.976   3.047  0.00  0.00    +0.000 C 
ATOM     44  C23 UNK     0      -5.209   2.603   4.347  0.00  0.00    +0.000 C 
ATOM     45  C22 UNK     0      -7.449   3.057   3.321  0.00  0.00    +0.000 C 
ENDBRANCH  42  43
ENDBRANCH  35  42
ENDBRANCH  32  35
ENDBRANCH  30  31
BRANCH  30  46
ATOM     46  C24 UNK     0      -3.556  -2.012  -0.662  0.00  0.00    +0.000 C 
BRANCH  46  47
ATOM     47  C29 UNK     0      -3.396  -3.027  -1.767  0.00  0.00    +0.000 A 
ATOM     48  C37 UNK     0      -2.594  -4.167  -1.578  0.00  0.00    +0.000 A 
ATOM     49  C45 UNK     0      -2.425  -5.089  -2.615  0.00  0.00    +0.000 A 
ATOM     50  C47 UNK     0      -3.044  -4.877  -3.850  0.00  0.00    +0.000 A 
ATOM     51  C46 UNK     0      -3.830  -3.738  -4.050  0.00  0.00    +0.000 A 
ATOM     52  C38 UNK     0      -4.008  -2.816  -3.013  0.00  0.00    +0.000 A 
ENDBRANCH  46  47
ENDBRANCH  30  46
ENDBRANCH  27  30
ENDBRANCH   1  26
BRANCH   1  53
ATOM     53  C26 UNK     0       0.861  -2.241  -3.159  0.00  0.00    +0.000 C 
BRANCH  53  54
ATOM     54  C28 UNK     0       0.171  -1.876  -4.495  0.00  0.00    +0.000 C 
ATOM     55  C33 UNK     0       0.008  -3.132  -5.362  0.00  0.00    +0.000 C 
ATOM     56  C34 UNK     0       0.952  -0.811  -5.275  0.00  0.00    +0.000 C 
ENDBRANCH  53  54
ENDBRANCH   1  53
TORSDOF 20
