REMARK  Name = C:\Users\Maximilian\Desktop\Conformers\converted_pdb\conformers_pdb\TAK_242_conf_23.pdb
REMARK  25 active torsions:
REMARK  status: ('A' for Active; 'I' for Inactive)
REMARK    1  A    between atoms: C25_1  and  N10_2
REMARK    2  A    between atoms: C25_1  and  C27_26
REMARK    3  A    between atoms: C25_1  and  C26_53
REMARK    4  A    between atoms: C31_4  and  C30_6
REMARK    5  A    between atoms: C30_6  and  C32_7
REMARK    6  A    between atoms: C30_6  and  N11_15
REMARK    7  A    between atoms: C32_7  and  C35_8
REMARK    8  A    between atoms: C35_8  and  C44_9
REMARK    9  A    between atoms: C41_16  and  C36_19
REMARK   10  A    between atoms: C36_19  and  N12_20
REMARK   11  A    between atoms: N9_27  and  C21_30
REMARK   12  A    between atoms: C21_30  and  C24_31
REMARK   13  A    between atoms: C21_30  and  C20_38
REMARK   14  A    between atoms: C24_31  and  C29_32
REMARK   15  A    between atoms: N8_39  and  C15_42
REMARK   16  A    between atoms: C15_42  and  C18_43
REMARK   17  A    between atoms: C15_42  and  C16_47
REMARK   18  A    between atoms: C18_43  and  C19_44
REMARK   19  A    between atoms: C19_44  and  C23_45
REMARK   20  A    between atoms: C19_44  and  C22_46
REMARK   21  A    between atoms: C16_47  and  C13_49
REMARK   22  A    between atoms: C13_49  and  C17_52
REMARK   23  A    between atoms: C26_53  and  C28_54
REMARK   24  A    between atoms: C28_54  and  C33_55
REMARK   25  A    between atoms: C28_54  and  C34_56
REMARK                            x       y       z     vdW  Elec       q    Type
REMARK                         _______ _______ _______ _____ _____    ______ ____
ROOT
ATOM      1  C25 UNK     0       0.059  -2.216   0.544  0.00  0.00    +0.000 C 
ENDROOT
BRANCH   1   2
ATOM      2  N10 UNK     0       1.407  -1.901   1.032  0.00  0.00    +0.000 N 
ATOM      3  H77 UNK     0       1.775  -2.384   1.884  0.00  0.00    +0.000 HD
ATOM      4  C31 UNK     0       2.206  -0.862   0.447  0.00  0.00    +0.000 C 
ATOM      5  O6  UNK     0       1.817  -0.278  -0.603  0.00  0.00    +0.000 OA
BRANCH   4   6
ATOM      6  C30 UNK     0       3.473  -0.418   1.131  0.00  0.00    +0.000 C 
BRANCH   6   7
ATOM      7  N11 UNK     0       4.341   0.282   0.177  0.00  0.00    +0.000 N 
ATOM      8  C41 UNK     0       5.165  -0.425  -0.760  0.00  0.00    +0.000 C 
ATOM      9  O7  UNK     0       5.161  -1.686  -0.782  0.00  0.00    +0.000 OA
ATOM     10  H87 UNK     0       4.264   1.321   0.087  0.00  0.00    +0.000 HD
BRANCH   8  11
ATOM     11  C36 UNK     0       5.973   0.337  -1.772  0.00  0.00    +0.000 C 
BRANCH  11  12
ATOM     12  N12 UNK     0       7.202  -0.399  -2.123  0.00  0.00    +0.000 NA
ATOM     13  C39 UNK     0       8.221  -0.273  -1.065  0.00  0.00    +0.000 C 
ATOM     14  C42 UNK     0       9.463  -1.111  -1.432  0.00  0.00    +0.000 C 
ATOM     15  O5  UNK     0       9.451  -1.540  -2.785  0.00  0.00    +0.000 OA
ATOM     16  C43 UNK     0       9.183  -0.442  -3.632  0.00  0.00    +0.000 C 
ATOM     17  C40 UNK     0       7.751   0.085  -3.408  0.00  0.00    +0.000 C 
ENDBRANCH  11  12
ENDBRANCH   8  11
ENDBRANCH   6   7
BRANCH   6  18
ATOM     18  C32 UNK     0       3.123   0.488   2.332  0.00  0.00    +0.000 C 
BRANCH  18  19
ATOM     19  C35 UNK     0       4.301   0.697   3.299  0.00  0.00    +0.000 C 
BRANCH  19  20
ATOM     20  C44 UNK     0       5.357   1.612   2.734  0.00  0.00    +0.000 A 
ATOM     21  C49 UNK     0       6.591   1.099   2.301  0.00  0.00    +0.000 A 
ATOM     22  C51 UNK     0       7.562   1.955   1.775  0.00  0.00    +0.000 A 
ATOM     23  C52 UNK     0       7.304   3.323   1.661  0.00  0.00    +0.000 A 
ATOM     24  C50 UNK     0       6.077   3.840   2.083  0.00  0.00    +0.000 A 
ATOM     25  C48 UNK     0       5.105   2.990   2.618  0.00  0.00    +0.000 A 
ENDBRANCH  19  20
ENDBRANCH  18  19
ENDBRANCH   6  18
ENDBRANCH   4   6
ENDBRANCH   1   2
BRANCH   1  26
ATOM     26  C27 UNK     0      -0.870  -1.063   0.833  0.00  0.00    +0.000 C 
ATOM     27  N9  UNK     0      -1.988  -0.821  -0.031  0.00  0.00    +0.000 N 
ATOM     28  H73 UNK     0      -2.292  -1.595  -0.666  0.00  0.00    +0.000 HD
ATOM     29  O4  UNK     0      -0.686  -0.344   1.853  0.00  0.00    +0.000 OA
BRANCH  27  30
ATOM     30  C21 UNK     0      -2.629   0.493  -0.153  0.00  0.00    +0.000 C 
BRANCH  30  31
ATOM     31  C20 UNK     0      -4.104   0.401   0.143  0.00  0.00    +0.000 C 
ATOM     32  N8  UNK     0      -4.833   1.585   0.497  0.00  0.00    +0.000 N 
ATOM     33  H62 UNK     0      -4.314   2.492   0.539  0.00  0.00    +0.000 HD
ATOM     34  O3  UNK     0      -4.701  -0.706   0.044  0.00  0.00    +0.000 OA
BRANCH  32  35
ATOM     35  C15 UNK     0      -6.209   1.546   1.005  0.00  0.00    +0.000 C 
BRANCH  35  36
ATOM     36  C16 UNK     0      -6.204   1.570   2.520  0.00  0.00    +0.000 C 
ATOM     37  O2  UNK     0      -5.209   1.958   3.120  0.00  0.00    +0.000 OA
BRANCH  36  38
ATOM     38  C13 UNK     0      -7.431   1.165   3.303  0.00  0.00    +0.000 C 
ATOM     39  O1  UNK     0      -8.241   2.274   3.616  0.00  0.00    +0.000 OA
ATOM     40  C14 UNK     0      -7.584   1.652   4.699  0.00  0.00    +0.000 C 
ATOM     41  C17 UNK     0      -8.260  -0.040   2.861  0.00  0.00    +0.000 C 
ENDBRANCH  36  38
ENDBRANCH  35  36
BRANCH  35  42
ATOM     42  C18 UNK     0      -7.017   2.737   0.455  0.00  0.00    +0.000 C 
BRANCH  42  43
ATOM     43  C19 UNK     0      -7.046   2.816  -1.092  0.00  0.00    +0.000 C 
ATOM     44  C23 UNK     0      -7.761   4.099  -1.535  0.00  0.00    +0.000 C 
ATOM     45  C22 UNK     0      -7.733   1.593  -1.723  0.00  0.00    +0.000 C 
ENDBRANCH  42  43
ENDBRANCH  35  42
ENDBRANCH  32  35
ENDBRANCH  30  31
BRANCH  30  46
ATOM     46  C24 UNK     0      -2.363   1.096  -1.546  0.00  0.00    +0.000 C 
BRANCH  46  47
ATOM     47  C29 UNK     0      -2.856   0.227  -2.679  0.00  0.00    +0.000 A 
ATOM     48  C37 UNK     0      -4.180   0.335  -3.134  0.00  0.00    +0.000 A 
ATOM     49  C45 UNK     0      -4.644  -0.493  -4.161  0.00  0.00    +0.000 A 
ATOM     50  C47 UNK     0      -3.791  -1.438  -4.737  0.00  0.00    +0.000 A 
ATOM     51  C46 UNK     0      -2.472  -1.557  -4.287  0.00  0.00    +0.000 A 
ATOM     52  C38 UNK     0      -2.004  -0.725  -3.266  0.00  0.00    +0.000 A 
ENDBRANCH  46  47
ENDBRANCH  30  46
ENDBRANCH  27  30
ENDBRANCH   1  26
BRANCH   1  53
ATOM     53  C26 UNK     0      -0.484  -3.514   1.188  0.00  0.00    +0.000 C 
BRANCH  53  54
ATOM     54  C28 UNK     0      -0.032  -4.800   0.457  0.00  0.00    +0.000 C 
ATOM     55  C33 UNK     0      -0.690  -6.030   1.102  0.00  0.00    +0.000 C 
ATOM     56  C34 UNK     0       1.494  -4.973   0.452  0.00  0.00    +0.000 C 
ENDBRANCH  53  54
ENDBRANCH   1  53
TORSDOF 20
