REMARK  Name = C:\Users\Maximilian\Desktop\Conformers\converted_pdb\conformers_pdb\TAK_242_conf_27.pdb
REMARK  25 active torsions:
REMARK  status: ('A' for Active; 'I' for Inactive)
REMARK    1  A    between atoms: C25_1  and  N10_2
REMARK    2  A    between atoms: C25_1  and  C27_26
REMARK    3  A    between atoms: C25_1  and  C26_53
REMARK    4  A    between atoms: C31_4  and  C30_6
REMARK    5  A    between atoms: C30_6  and  C32_7
REMARK    6  A    between atoms: C30_6  and  N11_15
REMARK    7  A    between atoms: C32_7  and  C35_8
REMARK    8  A    between atoms: C35_8  and  C44_9
REMARK    9  A    between atoms: C41_16  and  C36_19
REMARK   10  A    between atoms: C36_19  and  N12_20
REMARK   11  A    between atoms: N9_27  and  C21_30
REMARK   12  A    between atoms: C21_30  and  C24_31
REMARK   13  A    between atoms: C21_30  and  C20_38
REMARK   14  A    between atoms: C24_31  and  C29_32
REMARK   15  A    between atoms: N8_39  and  C15_42
REMARK   16  A    between atoms: C15_42  and  C18_43
REMARK   17  A    between atoms: C15_42  and  C16_47
REMARK   18  A    between atoms: C18_43  and  C19_44
REMARK   19  A    between atoms: C19_44  and  C23_45
REMARK   20  A    between atoms: C19_44  and  C22_46
REMARK   21  A    between atoms: C16_47  and  C13_49
REMARK   22  A    between atoms: C13_49  and  C17_52
REMARK   23  A    between atoms: C26_53  and  C28_54
REMARK   24  A    between atoms: C28_54  and  C33_55
REMARK   25  A    between atoms: C28_54  and  C34_56
REMARK                            x       y       z     vdW  Elec       q    Type
REMARK                         _______ _______ _______ _____ _____    ______ ____
ROOT
ATOM      1  C25 UNK     0       0.759  -1.197  -0.364  0.00  0.00    +0.000 C 
ENDROOT
BRANCH   1   2
ATOM      2  N10 UNK     0       2.058  -0.626   0.028  0.00  0.00    +0.000 N 
ATOM      3  H77 UNK     0       2.794  -0.568  -0.709  0.00  0.00    +0.000 HD
ATOM      4  C31 UNK     0       2.396  -0.165   1.350  0.00  0.00    +0.000 C 
ATOM      5  O6  UNK     0       1.505  -0.071   2.237  0.00  0.00    +0.000 OA
BRANCH   4   6
ATOM      6  C30 UNK     0       3.819   0.249   1.648  0.00  0.00    +0.000 C 
BRANCH   6   7
ATOM      7  N11 UNK     0       4.169   1.383   0.791  0.00  0.00    +0.000 N 
ATOM      8  C41 UNK     0       5.068   1.280  -0.323  0.00  0.00    +0.000 C 
ATOM      9  O7  UNK     0       5.603   0.172  -0.607  0.00  0.00    +0.000 OA
ATOM     10  H87 UNK     0       3.695   2.299   0.967  0.00  0.00    +0.000 HD
BRANCH   8  11
ATOM     11  C36 UNK     0       5.361   2.498  -1.153  0.00  0.00    +0.000 C 
BRANCH  11  12
ATOM     12  N12 UNK     0       6.249   2.165  -2.293  0.00  0.00    +0.000 NA
ATOM     13  C39 UNK     0       7.682   2.162  -1.914  0.00  0.00    +0.000 C 
ATOM     14  C42 UNK     0       8.346   3.545  -2.078  0.00  0.00    +0.000 C 
ATOM     15  O5  UNK     0       7.378   4.571  -2.077  0.00  0.00    +0.000 OA
ATOM     16  C43 UNK     0       6.564   4.468  -3.231  0.00  0.00    +0.000 C 
ATOM     17  C40 UNK     0       6.016   3.039  -3.458  0.00  0.00    +0.000 C 
ENDBRANCH  11  12
ENDBRANCH   8  11
ENDBRANCH   6   7
BRANCH   6  18
ATOM     18  C32 UNK     0       4.057   0.646   3.125  0.00  0.00    +0.000 C 
BRANCH  18  19
ATOM     19  C35 UNK     0       4.060  -0.548   4.096  0.00  0.00    +0.000 C 
BRANCH  19  20
ATOM     20  C44 UNK     0       5.252  -1.449   3.885  0.00  0.00    +0.000 A 
ATOM     21  C49 UNK     0       6.541  -1.011   4.238  0.00  0.00    +0.000 A 
ATOM     22  C51 UNK     0       7.649  -1.835   4.020  0.00  0.00    +0.000 A 
ATOM     23  C52 UNK     0       7.482  -3.097   3.444  0.00  0.00    +0.000 A 
ATOM     24  C50 UNK     0       6.204  -3.544   3.101  0.00  0.00    +0.000 A 
ATOM     25  C48 UNK     0       5.091  -2.725   3.320  0.00  0.00    +0.000 A 
ENDBRANCH  19  20
ENDBRANCH  18  19
ENDBRANCH   6  18
ENDBRANCH   4   6
ENDBRANCH   1   2
BRANCH   1  26
ATOM     26  C27 UNK     0      -0.343  -0.161  -0.317  0.00  0.00    +0.000 C 
ATOM     27  N9  UNK     0      -1.604  -0.445  -0.943  0.00  0.00    +0.000 N 
ATOM     28  H73 UNK     0      -1.767  -1.411  -1.305  0.00  0.00    +0.000 HD
ATOM     29  O4  UNK     0      -0.153   0.955   0.240  0.00  0.00    +0.000 OA
BRANCH  27  30
ATOM     30  C21 UNK     0      -2.671   0.552  -1.099  0.00  0.00    +0.000 C 
BRANCH  30  31
ATOM     31  C20 UNK     0      -3.902   0.133  -0.339  0.00  0.00    +0.000 C 
ATOM     32  N8  UNK     0      -4.740   1.128   0.271  0.00  0.00    +0.000 N 
ATOM     33  H62 UNK     0      -4.417   2.121   0.254  0.00  0.00    +0.000 HD
ATOM     34  O3  UNK     0      -4.208  -1.090  -0.262  0.00  0.00    +0.000 OA
BRANCH  32  35
ATOM     35  C15 UNK     0      -5.975   0.779   0.984  0.00  0.00    +0.000 C 
BRANCH  35  36
ATOM     36  C16 UNK     0      -6.381   1.875   1.948  0.00  0.00    +0.000 C 
ATOM     37  O2  UNK     0      -6.403   3.040   1.584  0.00  0.00    +0.000 OA
BRANCH  36  38
ATOM     38  C13 UNK     0      -6.799   1.529   3.350  0.00  0.00    +0.000 C 
ATOM     39  O1  UNK     0      -6.613   2.594   4.256  0.00  0.00    +0.000 OA
ATOM     40  C14 UNK     0      -5.747   1.486   4.391  0.00  0.00    +0.000 C 
ATOM     41  C17 UNK     0      -8.097   0.764   3.590  0.00  0.00    +0.000 C 
ENDBRANCH  36  38
ENDBRANCH  35  36
BRANCH  35  42
ATOM     42  C18 UNK     0      -7.108   0.390   0.000  0.00  0.00    +0.000 C 
BRANCH  42  43
ATOM     43  C19 UNK     0      -7.834   1.549  -0.733  0.00  0.00    +0.000 C 
ATOM     44  C23 UNK     0      -9.017   0.988  -1.534  0.00  0.00    +0.000 C 
ATOM     45  C22 UNK     0      -6.906   2.332  -1.675  0.00  0.00    +0.000 C 
ENDBRANCH  42  43
ENDBRANCH  35  42
ENDBRANCH  32  35
ENDBRANCH  30  31
BRANCH  30  46
ATOM     46  C24 UNK     0      -2.982   0.802  -2.590  0.00  0.00    +0.000 C 
BRANCH  46  47
ATOM     47  C29 UNK     0      -3.312  -0.455  -3.361  0.00  0.00    +0.000 A 
ATOM     48  C37 UNK     0      -4.628  -0.944  -3.410  0.00  0.00    +0.000 A 
ATOM     49  C45 UNK     0      -4.923  -2.117  -4.112  0.00  0.00    +0.000 A 
ATOM     50  C47 UNK     0      -3.906  -2.809  -4.774  0.00  0.00    +0.000 A 
ATOM     51  C46 UNK     0      -2.593  -2.334  -4.730  0.00  0.00    +0.000 A 
ATOM     52  C38 UNK     0      -2.297  -1.158  -4.034  0.00  0.00    +0.000 A 
ENDBRANCH  46  47
ENDBRANCH  30  46
ENDBRANCH  27  30
ENDBRANCH   1  26
BRANCH   1  53
ATOM     53  C26 UNK     0       0.414  -2.457   0.471  0.00  0.00    +0.000 C 
BRANCH  53  54
ATOM     54  C28 UNK     0       1.073  -3.752  -0.068  0.00  0.00    +0.000 C 
ATOM     55  C33 UNK     0       0.568  -4.962   0.732  0.00  0.00    +0.000 C 
ATOM     56  C34 UNK     0       2.606  -3.697  -0.016  0.00  0.00    +0.000 C 
ENDBRANCH  53  54
ENDBRANCH   1  53
TORSDOF 20
