REMARK  Name = C:\Users\Maximilian\Desktop\Conformers\converted_pdb\conformers_pdb\TAK_242_conf_13.pdb
REMARK  25 active torsions:
REMARK  status: ('A' for Active; 'I' for Inactive)
REMARK    1  A    between atoms: C25_1  and  N10_2
REMARK    2  A    between atoms: C25_1  and  C27_26
REMARK    3  A    between atoms: C25_1  and  C26_53
REMARK    4  A    between atoms: C31_4  and  C30_6
REMARK    5  A    between atoms: C30_6  and  C32_7
REMARK    6  A    between atoms: C30_6  and  N11_15
REMARK    7  A    between atoms: C32_7  and  C35_8
REMARK    8  A    between atoms: C35_8  and  C44_9
REMARK    9  A    between atoms: C41_16  and  C36_19
REMARK   10  A    between atoms: C36_19  and  N12_20
REMARK   11  A    between atoms: N9_27  and  C21_30
REMARK   12  A    between atoms: C21_30  and  C24_31
REMARK   13  A    between atoms: C21_30  and  C20_38
REMARK   14  A    between atoms: C24_31  and  C29_32
REMARK   15  A    between atoms: N8_39  and  C15_42
REMARK   16  A    between atoms: C15_42  and  C18_43
REMARK   17  A    between atoms: C15_42  and  C16_47
REMARK   18  A    between atoms: C18_43  and  C19_44
REMARK   19  A    between atoms: C19_44  and  C23_45
REMARK   20  A    between atoms: C19_44  and  C22_46
REMARK   21  A    between atoms: C16_47  and  C13_49
REMARK   22  A    between atoms: C13_49  and  C17_52
REMARK   23  A    between atoms: C26_53  and  C28_54
REMARK   24  A    between atoms: C28_54  and  C33_55
REMARK   25  A    between atoms: C28_54  and  C34_56
REMARK                            x       y       z     vdW  Elec       q    Type
REMARK                         _______ _______ _______ _____ _____    ______ ____
ROOT
ATOM      1  C25 UNK     0       0.285   1.160   1.257  0.00  0.00    +0.000 C 
ENDROOT
BRANCH   1   2
ATOM      2  N10 UNK     0       1.639   0.622   1.082  0.00  0.00    +0.000 N 
ATOM      3  H77 UNK     0       1.894   0.235   0.147  0.00  0.00    +0.000 HD
ATOM      4  C31 UNK     0       2.641   0.692   2.109  0.00  0.00    +0.000 C 
ATOM      5  O6  UNK     0       2.302   0.878   3.310  0.00  0.00    +0.000 OA
BRANCH   4   6
ATOM      6  C30 UNK     0       4.093   0.450   1.786  0.00  0.00    +0.000 C 
BRANCH   6   7
ATOM      7  N11 UNK     0       4.266  -0.939   1.351  0.00  0.00    +0.000 N 
ATOM      8  C41 UNK     0       5.232  -1.833   1.926  0.00  0.00    +0.000 C 
ATOM      9  O7  UNK     0       6.064  -1.422   2.779  0.00  0.00    +0.000 OA
ATOM     10  H87 UNK     0       3.697  -1.290   0.551  0.00  0.00    +0.000 HD
BRANCH   8  11
ATOM     11  C36 UNK     0       5.284  -3.261   1.465  0.00  0.00    +0.000 C 
BRANCH  11  12
ATOM     12  N12 UNK     0       5.641  -3.331   0.031  0.00  0.00    +0.000 NA
ATOM     13  C39 UNK     0       7.067  -3.033  -0.221  0.00  0.00    +0.000 C 
ATOM     14  C42 UNK     0       7.994  -4.201   0.187  0.00  0.00    +0.000 C 
ATOM     15  O5  UNK     0       7.278  -5.367   0.549  0.00  0.00    +0.000 OA
ATOM     16  C43 UNK     0       6.354  -5.696  -0.464  0.00  0.00    +0.000 C 
ATOM     17  C40 UNK     0       5.255  -4.621  -0.588  0.00  0.00    +0.000 C 
ENDBRANCH  11  12
ENDBRANCH   8  11
ENDBRANCH   6   7
BRANCH   6  18
ATOM     18  C32 UNK     0       4.570   1.419   0.690  0.00  0.00    +0.000 C 
BRANCH  18  19
ATOM     19  C35 UNK     0       6.087   1.354   0.479  0.00  0.00    +0.000 C 
BRANCH  19  20
ATOM     20  C44 UNK     0       6.501   2.242  -0.666  0.00  0.00    +0.000 A 
ATOM     21  C49 UNK     0       6.767   3.604  -0.443  0.00  0.00    +0.000 A 
ATOM     22  C51 UNK     0       7.102   4.439  -1.513  0.00  0.00    +0.000 A 
ATOM     23  C52 UNK     0       7.172   3.920  -2.809  0.00  0.00    +0.000 A 
ATOM     24  C50 UNK     0       6.897   2.570  -3.041  0.00  0.00    +0.000 A 
ATOM     25  C48 UNK     0       6.556   1.734  -1.975  0.00  0.00    +0.000 A 
ENDBRANCH  19  20
ENDBRANCH  18  19
ENDBRANCH   6  18
ENDBRANCH   4   6
ENDBRANCH   1   2
BRANCH   1  26
ATOM     26  C27 UNK     0      -0.738   0.060   1.147  0.00  0.00    +0.000 C 
ATOM     27  N9  UNK     0      -1.995   0.196   1.823  0.00  0.00    +0.000 N 
ATOM     28  H73 UNK     0      -2.201   1.111   2.276  0.00  0.00    +0.000 HD
ATOM     29  O4  UNK     0      -0.518  -0.940   0.411  0.00  0.00    +0.000 OA
BRANCH  27  30
ATOM     30  C21 UNK     0      -3.062  -0.806   1.726  0.00  0.00    +0.000 C 
BRANCH  30  31
ATOM     31  C20 UNK     0      -3.864  -0.608   0.460  0.00  0.00    +0.000 C 
ATOM     32  N8  UNK     0      -4.912  -1.528   0.117  0.00  0.00    +0.000 N 
ATOM     33  H62 UNK     0      -5.224  -2.219   0.839  0.00  0.00    +0.000 HD
ATOM     34  O3  UNK     0      -3.592   0.358  -0.310  0.00  0.00    +0.000 OA
BRANCH  32  35
ATOM     35  C15 UNK     0      -5.568  -1.541  -1.194  0.00  0.00    +0.000 C 
BRANCH  35  36
ATOM     36  C16 UNK     0      -5.799  -2.974  -1.617  0.00  0.00    +0.000 C 
ATOM     37  O2  UNK     0      -6.510  -3.704  -0.941  0.00  0.00    +0.000 OA
BRANCH  36  38
ATOM     38  C13 UNK     0      -5.195  -3.499  -2.887  0.00  0.00    +0.000 C 
ATOM     39  O1  UNK     0      -5.049  -4.900  -2.877  0.00  0.00    +0.000 OA
ATOM     40  C14 UNK     0      -3.861  -4.140  -2.812  0.00  0.00    +0.000 C 
ATOM     41  C17 UNK     0      -5.685  -2.964  -4.227  0.00  0.00    +0.000 C 
ENDBRANCH  36  38
ENDBRANCH  35  36
BRANCH  35  42
ATOM     42  C18 UNK     0      -6.918  -0.789  -1.146  0.00  0.00    +0.000 C 
BRANCH  42  43
ATOM     43  C19 UNK     0      -6.795   0.747  -0.988  0.00  0.00    +0.000 C 
ATOM     44  C23 UNK     0      -8.173   1.348  -0.685  0.00  0.00    +0.000 C 
ATOM     45  C22 UNK     0      -6.218   1.412  -2.248  0.00  0.00    +0.000 C 
ENDBRANCH  42  43
ENDBRANCH  35  42
ENDBRANCH  32  35
ENDBRANCH  30  31
BRANCH  30  46
ATOM     46  C24 UNK     0      -3.929  -0.801   3.009  0.00  0.00    +0.000 C 
BRANCH  46  47
ATOM     47  C29 UNK     0      -4.775   0.441   3.177  0.00  0.00    +0.000 A 
ATOM     48  C37 UNK     0      -4.280   1.554   3.878  0.00  0.00    +0.000 A 
ATOM     49  C45 UNK     0      -5.061   2.704   4.017  0.00  0.00    +0.000 A 
ATOM     50  C47 UNK     0      -6.349   2.744   3.481  0.00  0.00    +0.000 A 
ATOM     51  C46 UNK     0      -6.863   1.632   2.812  0.00  0.00    +0.000 A 
ATOM     52  C38 UNK     0      -6.079   0.485   2.658  0.00  0.00    +0.000 A 
ENDBRANCH  46  47
ENDBRANCH  30  46
ENDBRANCH  27  30
ENDBRANCH   1  26
BRANCH   1  53
ATOM     53  C26 UNK     0      -0.001   2.249   0.205  0.00  0.00    +0.000 C 
BRANCH  53  54
ATOM     54  C28 UNK     0       1.029   3.405   0.205  0.00  0.00    +0.000 C 
ATOM     55  C33 UNK     0       1.027   4.186   1.529  0.00  0.00    +0.000 C 
ATOM     56  C34 UNK     0       0.743   4.357  -0.964  0.00  0.00    +0.000 C 
ENDBRANCH  53  54
ENDBRANCH   1  53
TORSDOF 20
