REMARK  Name = C:\Users\Maximilian\Desktop\Conformers\converted_pdb\conformers_pdb\TAK_242_conf_29.pdb
REMARK  25 active torsions:
REMARK  status: ('A' for Active; 'I' for Inactive)
REMARK    1  A    between atoms: C25_1  and  N10_2
REMARK    2  A    between atoms: C25_1  and  C27_26
REMARK    3  A    between atoms: C25_1  and  C26_53
REMARK    4  A    between atoms: C31_4  and  C30_6
REMARK    5  A    between atoms: C30_6  and  C32_7
REMARK    6  A    between atoms: C30_6  and  N11_15
REMARK    7  A    between atoms: C32_7  and  C35_8
REMARK    8  A    between atoms: C35_8  and  C44_9
REMARK    9  A    between atoms: C41_16  and  C36_19
REMARK   10  A    between atoms: C36_19  and  N12_20
REMARK   11  A    between atoms: N9_27  and  C21_30
REMARK   12  A    between atoms: C21_30  and  C24_31
REMARK   13  A    between atoms: C21_30  and  C20_38
REMARK   14  A    between atoms: C24_31  and  C29_32
REMARK   15  A    between atoms: N8_39  and  C15_42
REMARK   16  A    between atoms: C15_42  and  C18_43
REMARK   17  A    between atoms: C15_42  and  C16_47
REMARK   18  A    between atoms: C18_43  and  C19_44
REMARK   19  A    between atoms: C19_44  and  C23_45
REMARK   20  A    between atoms: C19_44  and  C22_46
REMARK   21  A    between atoms: C16_47  and  C13_49
REMARK   22  A    between atoms: C13_49  and  C17_52
REMARK   23  A    between atoms: C26_53  and  C28_54
REMARK   24  A    between atoms: C28_54  and  C33_55
REMARK   25  A    between atoms: C28_54  and  C34_56
REMARK                            x       y       z     vdW  Elec       q    Type
REMARK                         _______ _______ _______ _____ _____    ______ ____
ROOT
ATOM      1  C25 UNK     0       1.594  -2.801   1.626  0.00  0.00    +0.000 C 
ENDROOT
BRANCH   1   2
ATOM      2  N10 UNK     0       2.257  -1.495   1.593  0.00  0.00    +0.000 N 
ATOM      3  H77 UNK     0       1.909  -0.747   2.235  0.00  0.00    +0.000 HD
ATOM      4  C31 UNK     0       3.125  -1.110   0.518  0.00  0.00    +0.000 C 
ATOM      5  O6  UNK     0       3.712  -1.991  -0.176  0.00  0.00    +0.000 OA
BRANCH   4   6
ATOM      6  C30 UNK     0       3.342   0.348   0.216  0.00  0.00    +0.000 C 
BRANCH   6   7
ATOM      7  N11 UNK     0       4.740   0.696   0.481  0.00  0.00    +0.000 N 
ATOM      8  C41 UNK     0       5.218   0.919   1.818  0.00  0.00    +0.000 C 
ATOM      9  O7  UNK     0       4.426   0.837   2.797  0.00  0.00    +0.000 OA
ATOM     10  H87 UNK     0       5.431   0.679  -0.308  0.00  0.00    +0.000 HD
BRANCH   8  11
ATOM     11  C36 UNK     0       6.663   1.246   2.069  0.00  0.00    +0.000 C 
BRANCH  11  12
ATOM     12  N12 UNK     0       6.769   2.473   2.890  0.00  0.00    +0.000 NA
ATOM     13  C39 UNK     0       6.529   3.710   2.105  0.00  0.00    +0.000 C 
ATOM     14  C42 UNK     0       7.835   4.345   1.586  0.00  0.00    +0.000 C 
ATOM     15  O5  UNK     0       8.830   3.359   1.405  0.00  0.00    +0.000 OA
ATOM     16  C43 UNK     0       9.237   2.848   2.664  0.00  0.00    +0.000 C 
ATOM     17  C40 UNK     0       8.052   2.545   3.614  0.00  0.00    +0.000 C 
ENDBRANCH  11  12
ENDBRANCH   8  11
ENDBRANCH   6   7
BRANCH   6  18
ATOM     18  C32 UNK     0       2.965   0.674  -1.245  0.00  0.00    +0.000 C 
BRANCH  18  19
ATOM     19  C35 UNK     0       1.455   0.518  -1.497  0.00  0.00    +0.000 C 
BRANCH  19  20
ATOM     20  C44 UNK     0       1.148   0.708  -2.957  0.00  0.00    +0.000 A 
ATOM     21  C49 UNK     0       1.192  -0.385  -3.838  0.00  0.00    +0.000 A 
ATOM     22  C51 UNK     0       0.932  -0.201  -5.201  0.00  0.00    +0.000 A 
ATOM     23  C52 UNK     0       0.641   1.075  -5.693  0.00  0.00    +0.000 A 
ATOM     24  C50 UNK     0       0.622   2.170  -4.825  0.00  0.00    +0.000 A 
ATOM     25  C48 UNK     0       0.881   1.990  -3.464  0.00  0.00    +0.000 A 
ENDBRANCH  19  20
ENDBRANCH  18  19
ENDBRANCH   6  18
ENDBRANCH   4   6
ENDBRANCH   1   2
BRANCH   1  26
ATOM     26  C27 UNK     0       0.303  -2.701   0.857  0.00  0.00    +0.000 C 
ATOM     27  N9  UNK     0      -0.681  -1.714   1.209  0.00  0.00    +0.000 N 
ATOM     28  H73 UNK     0      -0.494  -1.098   2.033  0.00  0.00    +0.000 HD
ATOM     29  O4  UNK     0       0.111  -3.465  -0.126  0.00  0.00    +0.000 OA
BRANCH  27  30
ATOM     30  C21 UNK     0      -2.026  -1.699   0.624  0.00  0.00    +0.000 C 
BRANCH  30  31
ATOM     31  C20 UNK     0      -2.483  -0.278   0.387  0.00  0.00    +0.000 C 
ATOM     32  N8  UNK     0      -3.456   0.000  -0.634  0.00  0.00    +0.000 N 
ATOM     33  H62 UNK     0      -3.789  -0.791  -1.229  0.00  0.00    +0.000 HD
ATOM     34  O3  UNK     0      -2.055   0.653   1.124  0.00  0.00    +0.000 OA
BRANCH  32  35
ATOM     35  C15 UNK     0      -3.910   1.359  -0.948  0.00  0.00    +0.000 C 
BRANCH  35  36
ATOM     36  C16 UNK     0      -3.069   1.922  -2.077  0.00  0.00    +0.000 C 
ATOM     37  O2  UNK     0      -2.286   2.827  -1.828  0.00  0.00    +0.000 OA
BRANCH  36  38
ATOM     38  C13 UNK     0      -3.089   1.376  -3.485  0.00  0.00    +0.000 C 
ATOM     39  O1  UNK     0      -3.666   0.097  -3.610  0.00  0.00    +0.000 OA
ATOM     40  C14 UNK     0      -2.262   0.172  -3.746  0.00  0.00    +0.000 C 
ATOM     41  C17 UNK     0      -3.435   2.297  -4.656  0.00  0.00    +0.000 C 
ENDBRANCH  36  38
ENDBRANCH  35  36
BRANCH  35  42
ATOM     42  C18 UNK     0      -5.429   1.346  -1.257  0.00  0.00    +0.000 C 
BRANCH  42  43
ATOM     43  C19 UNK     0      -6.185   2.678  -1.021  0.00  0.00    +0.000 C 
ATOM     44  C23 UNK     0      -5.719   3.806  -1.950  0.00  0.00    +0.000 C 
ATOM     45  C22 UNK     0      -6.161   3.127   0.449  0.00  0.00    +0.000 C 
ENDBRANCH  42  43
ENDBRANCH  35  42
ENDBRANCH  32  35
ENDBRANCH  30  31
BRANCH  30  46
ATOM     46  C24 UNK     0      -2.995  -2.445   1.558  0.00  0.00    +0.000 C 
BRANCH  46  47
ATOM     47  C29 UNK     0      -4.344  -2.660   0.920  0.00  0.00    +0.000 A 
ATOM     48  C37 UNK     0      -5.435  -1.846   1.267  0.00  0.00    +0.000 A 
ATOM     49  C45 UNK     0      -6.673  -2.024   0.643  0.00  0.00    +0.000 A 
ATOM     50  C47 UNK     0      -6.827  -3.004  -0.340  0.00  0.00    +0.000 A 
ATOM     51  C46 UNK     0      -5.746  -3.819  -0.691  0.00  0.00    +0.000 A 
ATOM     52  C38 UNK     0      -4.509  -3.648  -0.066  0.00  0.00    +0.000 A 
ENDBRANCH  46  47
ENDBRANCH  30  46
ENDBRANCH  27  30
ENDBRANCH   1  26
BRANCH   1  53
ATOM     53  C26 UNK     0       1.377  -3.240   3.094  0.00  0.00    +0.000 C 
BRANCH  53  54
ATOM     54  C28 UNK     0       1.143  -4.763   3.273  0.00  0.00    +0.000 C 
ATOM     55  C33 UNK     0      -0.290  -5.176   2.909  0.00  0.00    +0.000 C 
ATOM     56  C34 UNK     0       1.445  -5.177   4.720  0.00  0.00    +0.000 C 
ENDBRANCH  53  54
ENDBRANCH   1  53
TORSDOF 20
