REMARK  Name = C:\Users\Maximilian\Desktop\Conformers\converted_pdb\conformers_pdb\TAK_242_conf_64.pdb
REMARK  25 active torsions:
REMARK  status: ('A' for Active; 'I' for Inactive)
REMARK    1  A    between atoms: C25_1  and  N10_2
REMARK    2  A    between atoms: C25_1  and  C27_26
REMARK    3  A    between atoms: C25_1  and  C26_53
REMARK    4  A    between atoms: C31_4  and  C30_6
REMARK    5  A    between atoms: C30_6  and  C32_7
REMARK    6  A    between atoms: C30_6  and  N11_15
REMARK    7  A    between atoms: C32_7  and  C35_8
REMARK    8  A    between atoms: C35_8  and  C44_9
REMARK    9  A    between atoms: C41_16  and  C36_19
REMARK   10  A    between atoms: C36_19  and  N12_20
REMARK   11  A    between atoms: N9_27  and  C21_30
REMARK   12  A    between atoms: C21_30  and  C24_31
REMARK   13  A    between atoms: C21_30  and  C20_38
REMARK   14  A    between atoms: C24_31  and  C29_32
REMARK   15  A    between atoms: N8_39  and  C15_42
REMARK   16  A    between atoms: C15_42  and  C18_43
REMARK   17  A    between atoms: C15_42  and  C16_47
REMARK   18  A    between atoms: C18_43  and  C19_44
REMARK   19  A    between atoms: C19_44  and  C23_45
REMARK   20  A    between atoms: C19_44  and  C22_46
REMARK   21  A    between atoms: C16_47  and  C13_49
REMARK   22  A    between atoms: C13_49  and  C17_52
REMARK   23  A    between atoms: C26_53  and  C28_54
REMARK   24  A    between atoms: C28_54  and  C33_55
REMARK   25  A    between atoms: C28_54  and  C34_56
REMARK                            x       y       z     vdW  Elec       q    Type
REMARK                         _______ _______ _______ _____ _____    ______ ____
ROOT
ATOM      1  C25 UNK     0       0.416  -0.184   1.817  0.00  0.00    +0.000 C 
ENDROOT
BRANCH   1   2
ATOM      2  N10 UNK     0       1.874  -0.147   1.629  0.00  0.00    +0.000 N 
ATOM      3  H77 UNK     0       2.425   0.607   2.093  0.00  0.00    +0.000 HD
ATOM      4  C31 UNK     0       2.608  -1.190   0.966  0.00  0.00    +0.000 C 
ATOM      5  O6  UNK     0       2.000  -2.176   0.469  0.00  0.00    +0.000 OA
BRANCH   4   6
ATOM      6  C30 UNK     0       4.110  -1.111   0.871  0.00  0.00    +0.000 C 
BRANCH   6   7
ATOM      7  N11 UNK     0       4.496   0.210   0.362  0.00  0.00    +0.000 N 
ATOM      8  C41 UNK     0       4.389   0.552  -1.030  0.00  0.00    +0.000 C 
ATOM      9  O7  UNK     0       3.877  -0.257  -1.854  0.00  0.00    +0.000 OA
ATOM     10  H87 UNK     0       4.870   0.928   1.020  0.00  0.00    +0.000 HD
BRANCH   8  11
ATOM     11  C36 UNK     0       4.928   1.867  -1.519  0.00  0.00    +0.000 C 
BRANCH  11  12
ATOM     12  N12 UNK     0       6.176   1.678  -2.292  0.00  0.00    +0.000 NA
ATOM     13  C39 UNK     0       6.614   2.940  -2.930  0.00  0.00    +0.000 C 
ATOM     14  C42 UNK     0       7.630   3.705  -2.053  0.00  0.00    +0.000 C 
ATOM     15  O5  UNK     0       8.786   2.961  -1.680  0.00  0.00    +0.000 OA
ATOM     16  C43 UNK     0       8.643   1.561  -1.872  0.00  0.00    +0.000 C 
ATOM     17  C40 UNK     0       7.249   1.064  -1.462  0.00  0.00    +0.000 C 
ENDBRANCH  11  12
ENDBRANCH   8  11
ENDBRANCH   6   7
BRANCH   6  18
ATOM     18  C32 UNK     0       4.767  -1.359   2.245  0.00  0.00    +0.000 C 
BRANCH  18  19
ATOM     19  C35 UNK     0       4.587  -2.805   2.747  0.00  0.00    +0.000 C 
BRANCH  19  20
ATOM     20  C44 UNK     0       5.389  -3.784   1.924  0.00  0.00    +0.000 A 
ATOM     21  C49 UNK     0       4.760  -4.603   0.973  0.00  0.00    +0.000 A 
ATOM     22  C51 UNK     0       5.513  -5.499   0.208  0.00  0.00    +0.000 A 
ATOM     23  C52 UNK     0       6.897  -5.573   0.377  0.00  0.00    +0.000 A 
ATOM     24  C50 UNK     0       7.531  -4.764   1.324  0.00  0.00    +0.000 A 
ATOM     25  C48 UNK     0       6.780  -3.877   2.098  0.00  0.00    +0.000 A 
ENDBRANCH  19  20
ENDBRANCH  18  19
ENDBRANCH   6  18
ENDBRANCH   4   6
ENDBRANCH   1   2
BRANCH   1  26
ATOM     26  C27 UNK     0      -0.321  -0.264   0.501  0.00  0.00    +0.000 C 
ATOM     27  N9  UNK     0      -1.655  -0.793   0.459  0.00  0.00    +0.000 N 
ATOM     28  H73 UNK     0      -2.134  -0.990   1.364  0.00  0.00    +0.000 HD
ATOM     29  O4  UNK     0       0.228   0.142  -0.555  0.00  0.00    +0.000 OA
BRANCH  27  30
ATOM     30  C21 UNK     0      -2.394  -0.999  -0.789  0.00  0.00    +0.000 C 
BRANCH  30  31
ATOM     31  C20 UNK     0      -3.451   0.066  -0.938  0.00  0.00    +0.000 C 
ATOM     32  N8  UNK     0      -4.561   0.130  -0.027  0.00  0.00    +0.000 N 
ATOM     33  H62 UNK     0      -4.548  -0.500   0.810  0.00  0.00    +0.000 HD
ATOM     34  O3  UNK     0      -3.345   0.905  -1.871  0.00  0.00    +0.000 OA
BRANCH  32  35
ATOM     35  C15 UNK     0      -5.785   0.873  -0.350  0.00  0.00    +0.000 C 
BRANCH  35  36
ATOM     36  C16 UNK     0      -6.973   0.342   0.428  0.00  0.00    +0.000 C 
ATOM     37  O2  UNK     0      -6.921   0.250   1.648  0.00  0.00    +0.000 OA
BRANCH  36  38
ATOM     38  C13 UNK     0      -8.216  -0.102  -0.302  0.00  0.00    +0.000 C 
ATOM     39  O1  UNK     0      -9.089  -0.855   0.510  0.00  0.00    +0.000 OA
ATOM     40  C14 UNK     0      -8.402  -1.559  -0.503  0.00  0.00    +0.000 C 
ATOM     41  C17 UNK     0      -8.973   0.880  -1.197  0.00  0.00    +0.000 C 
ENDBRANCH  36  38
ENDBRANCH  35  36
BRANCH  35  42
ATOM     42  C18 UNK     0      -5.606   2.405  -0.185  0.00  0.00    +0.000 C 
BRANCH  42  43
ATOM     43  C19 UNK     0      -5.534   2.960   1.259  0.00  0.00    +0.000 C 
ATOM     44  C23 UNK     0      -5.425   4.491   1.216  0.00  0.00    +0.000 C 
ATOM     45  C22 UNK     0      -4.353   2.384   2.049  0.00  0.00    +0.000 C 
ENDBRANCH  42  43
ENDBRANCH  35  42
ENDBRANCH  32  35
ENDBRANCH  30  31
BRANCH  30  46
ATOM     46  C24 UNK     0      -2.995  -2.415  -0.813  0.00  0.00    +0.000 C 
BRANCH  46  47
ATOM     47  C29 UNK     0      -3.663  -2.716  -2.133  0.00  0.00    +0.000 A 
ATOM     48  C37 UNK     0      -2.893  -3.111  -3.238  0.00  0.00    +0.000 A 
ATOM     49  C45 UNK     0      -3.501  -3.362  -4.471  0.00  0.00    +0.000 A 
ATOM     50  C47 UNK     0      -4.880  -3.196  -4.618  0.00  0.00    +0.000 A 
ATOM     51  C46 UNK     0      -5.652  -2.784  -3.529  0.00  0.00    +0.000 A 
ATOM     52  C38 UNK     0      -5.049  -2.546  -2.290  0.00  0.00    +0.000 A 
ENDBRANCH  46  47
ENDBRANCH  30  46
ENDBRANCH  27  30
ENDBRANCH   1  26
BRANCH   1  53
ATOM     53  C26 UNK     0      -0.078   1.012   2.674  0.00  0.00    +0.000 C 
BRANCH  53  54
ATOM     54  C28 UNK     0      -0.229   2.376   1.945  0.00  0.00    +0.000 C 
ATOM     55  C33 UNK     0       1.095   2.907   1.379  0.00  0.00    +0.000 C 
ATOM     56  C34 UNK     0      -0.821   3.419   2.909  0.00  0.00    +0.000 C 
ENDBRANCH  53  54
ENDBRANCH   1  53
TORSDOF 20
