REMARK  Name = C:\Users\Maximilian\Desktop\Conformers\converted_pdb\conformers_pdb\TAK_242_conf_62.pdb
REMARK  25 active torsions:
REMARK  status: ('A' for Active; 'I' for Inactive)
REMARK    1  A    between atoms: C25_1  and  N10_2
REMARK    2  A    between atoms: C25_1  and  C27_26
REMARK    3  A    between atoms: C25_1  and  C26_53
REMARK    4  A    between atoms: C31_4  and  C30_6
REMARK    5  A    between atoms: C30_6  and  C32_7
REMARK    6  A    between atoms: C30_6  and  N11_15
REMARK    7  A    between atoms: C32_7  and  C35_8
REMARK    8  A    between atoms: C35_8  and  C44_9
REMARK    9  A    between atoms: C41_16  and  C36_19
REMARK   10  A    between atoms: C36_19  and  N12_20
REMARK   11  A    between atoms: N9_27  and  C21_30
REMARK   12  A    between atoms: C21_30  and  C24_31
REMARK   13  A    between atoms: C21_30  and  C20_38
REMARK   14  A    between atoms: C24_31  and  C29_32
REMARK   15  A    between atoms: N8_39  and  C15_42
REMARK   16  A    between atoms: C15_42  and  C18_43
REMARK   17  A    between atoms: C15_42  and  C16_47
REMARK   18  A    between atoms: C18_43  and  C19_44
REMARK   19  A    between atoms: C19_44  and  C23_45
REMARK   20  A    between atoms: C19_44  and  C22_46
REMARK   21  A    between atoms: C16_47  and  C13_49
REMARK   22  A    between atoms: C13_49  and  C17_52
REMARK   23  A    between atoms: C26_53  and  C28_54
REMARK   24  A    between atoms: C28_54  and  C33_55
REMARK   25  A    between atoms: C28_54  and  C34_56
REMARK                            x       y       z     vdW  Elec       q    Type
REMARK                         _______ _______ _______ _____ _____    ______ ____
ROOT
ATOM      1  C25 UNK     0      -0.536  -0.085  -0.308  0.00  0.00    +0.000 C 
ENDROOT
BRANCH   1   2
ATOM      2  N10 UNK     0      -1.889  -0.037   0.250  0.00  0.00    +0.000 N 
ATOM      3  H77 UNK     0      -2.339   0.900   0.360  0.00  0.00    +0.000 HD
ATOM      4  C31 UNK     0      -2.529  -1.191   0.822  0.00  0.00    +0.000 C 
ATOM      5  O6  UNK     0      -1.877  -2.262   0.965  0.00  0.00    +0.000 OA
BRANCH   4   6
ATOM      6  C30 UNK     0      -3.946  -1.107   1.349  0.00  0.00    +0.000 C 
BRANCH   6   7
ATOM      7  N11 UNK     0      -4.672   0.001   0.719  0.00  0.00    +0.000 N 
ATOM      8  C41 UNK     0      -5.324   1.043   1.461  0.00  0.00    +0.000 C 
ATOM      9  O7  UNK     0      -5.344   1.015   2.720  0.00  0.00    +0.000 OA
ATOM     10  H87 UNK     0      -4.722   0.036  -0.323  0.00  0.00    +0.000 HD
BRANCH   8  11
ATOM     11  C36 UNK     0      -6.024   2.157   0.736  0.00  0.00    +0.000 C 
BRANCH  11  12
ATOM     12  N12 UNK     0      -5.171   2.691  -0.354  0.00  0.00    +0.000 NA
ATOM     13  C39 UNK     0      -5.948   3.428  -1.376  0.00  0.00    +0.000 C 
ATOM     14  C42 UNK     0      -6.106   4.925  -1.041  0.00  0.00    +0.000 C 
ATOM     15  O5  UNK     0      -5.863   5.169   0.328  0.00  0.00    +0.000 OA
ATOM     16  C43 UNK     0      -4.504   4.907   0.624  0.00  0.00    +0.000 C 
ATOM     17  C40 UNK     0      -4.047   3.509   0.148  0.00  0.00    +0.000 C 
ENDBRANCH  11  12
ENDBRANCH   8  11
ENDBRANCH   6   7
BRANCH   6  18
ATOM     18  C32 UNK     0      -4.727  -2.425   1.160  0.00  0.00    +0.000 C 
BRANCH  18  19
ATOM     19  C35 UNK     0      -4.866  -2.858  -0.310  0.00  0.00    +0.000 C 
BRANCH  19  20
ATOM     20  C44 UNK     0      -5.619  -4.156  -0.409  0.00  0.00    +0.000 A 
ATOM     21  C49 UNK     0      -7.020  -4.149  -0.524  0.00  0.00    +0.000 A 
ATOM     22  C51 UNK     0      -7.726  -5.355  -0.578  0.00  0.00    +0.000 A 
ATOM     23  C52 UNK     0      -7.042  -6.572  -0.515  0.00  0.00    +0.000 A 
ATOM     24  C50 UNK     0      -5.650  -6.585  -0.382  0.00  0.00    +0.000 A 
ATOM     25  C48 UNK     0      -4.938  -5.383  -0.324  0.00  0.00    +0.000 A 
ENDBRANCH  19  20
ENDBRANCH  18  19
ENDBRANCH   6  18
ENDBRANCH   4   6
ENDBRANCH   1   2
BRANCH   1  26
ATOM     26  C27 UNK     0       0.449   0.273   0.774  0.00  0.00    +0.000 C 
ATOM     27  N9  UNK     0       1.407  -0.694   1.227  0.00  0.00    +0.000 N 
ATOM     28  H73 UNK     0       1.338  -1.669   0.866  0.00  0.00    +0.000 HD
ATOM     29  O4  UNK     0       0.427   1.427   1.279  0.00  0.00    +0.000 OA
BRANCH  27  30
ATOM     30  C21 UNK     0       2.475  -0.351   2.173  0.00  0.00    +0.000 C 
BRANCH  30  31
ATOM     31  C20 UNK     0       3.440   0.611   1.529  0.00  0.00    +0.000 C 
ATOM     32  N8  UNK     0       4.022   0.300   0.255  0.00  0.00    +0.000 N 
ATOM     33  H62 UNK     0       3.484  -0.316  -0.393  0.00  0.00    +0.000 HD
ATOM     34  O3  UNK     0       3.762   1.667   2.136  0.00  0.00    +0.000 OA
BRANCH  32  35
ATOM     35  C15 UNK     0       5.268   0.914  -0.211  0.00  0.00    +0.000 C 
BRANCH  35  36
ATOM     36  C16 UNK     0       6.224  -0.132  -0.761  0.00  0.00    +0.000 C 
ATOM     37  O2  UNK     0       7.426   0.059  -0.651  0.00  0.00    +0.000 OA
BRANCH  36  38
ATOM     38  C13 UNK     0       5.752  -1.379  -1.470  0.00  0.00    +0.000 C 
ATOM     39  O1  UNK     0       5.094  -2.277  -0.607  0.00  0.00    +0.000 OA
ATOM     40  C14 UNK     0       6.364  -2.673  -1.070  0.00  0.00    +0.000 C 
ATOM     41  C17 UNK     0       5.077  -1.277  -2.836  0.00  0.00    +0.000 C 
ENDBRANCH  36  38
ENDBRANCH  35  36
BRANCH  35  42
ATOM     42  C18 UNK     0       4.938   2.007  -1.250  0.00  0.00    +0.000 C 
BRANCH  42  43
ATOM     43  C19 UNK     0       6.162   2.811  -1.755  0.00  0.00    +0.000 C 
ATOM     44  C23 UNK     0       6.862   3.578  -0.618  0.00  0.00    +0.000 C 
ATOM     45  C22 UNK     0       5.719   3.790  -2.850  0.00  0.00    +0.000 C 
ENDBRANCH  42  43
ENDBRANCH  35  42
ENDBRANCH  32  35
ENDBRANCH  30  31
BRANCH  30  46
ATOM     46  C24 UNK     0       3.213  -1.625   2.635  0.00  0.00    +0.000 C 
BRANCH  46  47
ATOM     47  C29 UNK     0       4.292  -1.316   3.645  0.00  0.00    +0.000 A 
ATOM     48  C37 UNK     0       5.608  -1.053   3.221  0.00  0.00    +0.000 A 
ATOM     49  C45 UNK     0       6.588  -0.691   4.151  0.00  0.00    +0.000 A 
ATOM     50  C47 UNK     0       6.265  -0.595   5.508  0.00  0.00    +0.000 A 
ATOM     51  C46 UNK     0       4.960  -0.855   5.936  0.00  0.00    +0.000 A 
ATOM     52  C38 UNK     0       3.973  -1.208   5.010  0.00  0.00    +0.000 A 
ENDBRANCH  46  47
ENDBRANCH  30  46
ENDBRANCH  27  30
ENDBRANCH   1  26
BRANCH   1  53
ATOM     53  C26 UNK     0      -0.393   0.889  -1.504  0.00  0.00    +0.000 C 
BRANCH  53  54
ATOM     54  C28 UNK     0      -1.122   0.468  -2.808  0.00  0.00    +0.000 C 
ATOM     55  C33 UNK     0      -2.651   0.443  -2.668  0.00  0.00    +0.000 C 
ATOM     56  C34 UNK     0      -0.604  -0.865  -3.373  0.00  0.00    +0.000 C 
ENDBRANCH  53  54
ENDBRANCH   1  53
TORSDOF 20
