REMARK  Name = C:\Users\Maximilian\Desktop\Conformers\converted_pdb\conformers_pdb\TAK_242_conf_6.pdb
REMARK  25 active torsions:
REMARK  status: ('A' for Active; 'I' for Inactive)
REMARK    1  A    between atoms: C25_1  and  N10_2
REMARK    2  A    between atoms: C25_1  and  C27_26
REMARK    3  A    between atoms: C25_1  and  C26_53
REMARK    4  A    between atoms: C31_4  and  C30_6
REMARK    5  A    between atoms: C30_6  and  C32_7
REMARK    6  A    between atoms: C30_6  and  N11_15
REMARK    7  A    between atoms: C32_7  and  C35_8
REMARK    8  A    between atoms: C35_8  and  C44_9
REMARK    9  A    between atoms: C41_16  and  C36_19
REMARK   10  A    between atoms: C36_19  and  N12_20
REMARK   11  A    between atoms: N9_27  and  C21_30
REMARK   12  A    between atoms: C21_30  and  C24_31
REMARK   13  A    between atoms: C21_30  and  C20_38
REMARK   14  A    between atoms: C24_31  and  C29_32
REMARK   15  A    between atoms: N8_39  and  C15_42
REMARK   16  A    between atoms: C15_42  and  C18_43
REMARK   17  A    between atoms: C15_42  and  C16_47
REMARK   18  A    between atoms: C18_43  and  C19_44
REMARK   19  A    between atoms: C19_44  and  C23_45
REMARK   20  A    between atoms: C19_44  and  C22_46
REMARK   21  A    between atoms: C16_47  and  C13_49
REMARK   22  A    between atoms: C13_49  and  C17_52
REMARK   23  A    between atoms: C26_53  and  C28_54
REMARK   24  A    between atoms: C28_54  and  C33_55
REMARK   25  A    between atoms: C28_54  and  C34_56
REMARK                            x       y       z     vdW  Elec       q    Type
REMARK                         _______ _______ _______ _____ _____    ______ ____
ROOT
ATOM      1  C25 UNK     0      -0.684   0.907  -0.625  0.00  0.00    +0.000 C 
ENDROOT
BRANCH   1   2
ATOM      2  N10 UNK     0      -1.802   0.450   0.209  0.00  0.00    +0.000 N 
ATOM      3  H77 UNK     0      -1.666   0.481   1.242  0.00  0.00    +0.000 HD
ATOM      4  C31 UNK     0      -3.028  -0.064  -0.338  0.00  0.00    +0.000 C 
ATOM      5  O6  UNK     0      -3.100  -0.304  -1.577  0.00  0.00    +0.000 OA
BRANCH   4   6
ATOM      6  C30 UNK     0      -4.286  -0.225   0.505  0.00  0.00    +0.000 C 
BRANCH   6   7
ATOM      7  N11 UNK     0      -5.146  -1.268  -0.069  0.00  0.00    +0.000 N 
ATOM      8  C41 UNK     0      -6.555  -1.338   0.212  0.00  0.00    +0.000 C 
ATOM      9  O7  UNK     0      -7.084  -0.511   1.008  0.00  0.00    +0.000 OA
ATOM     10  H87 UNK     0      -4.722  -1.991  -0.692  0.00  0.00    +0.000 HD
BRANCH   8  11
ATOM     11  C36 UNK     0      -7.447  -2.313  -0.509  0.00  0.00    +0.000 C 
BRANCH  11  12
ATOM     12  N12 UNK     0      -6.718  -3.549  -0.869  0.00  0.00    +0.000 NA
ATOM     13  C39 UNK     0      -7.386  -4.268  -1.971  0.00  0.00    +0.000 C 
ATOM     14  C42 UNK     0      -8.696  -4.947  -1.515  0.00  0.00    +0.000 C 
ATOM     15  O5  UNK     0      -8.796  -5.080  -0.108  0.00  0.00    +0.000 OA
ATOM     16  C43 UNK     0      -7.569  -5.532   0.423  0.00  0.00    +0.000 C 
ATOM     17  C40 UNK     0      -6.497  -4.433   0.303  0.00  0.00    +0.000 C 
ENDBRANCH  11  12
ENDBRANCH   8  11
ENDBRANCH   6   7
BRANCH   6  18
ATOM     18  C32 UNK     0      -3.995  -0.549   1.991  0.00  0.00    +0.000 C 
BRANCH  18  19
ATOM     19  C35 UNK     0      -3.975   0.722   2.854  0.00  0.00    +0.000 C 
BRANCH  19  20
ATOM     20  C44 UNK     0      -3.454   0.421   4.234  0.00  0.00    +0.000 A 
ATOM     21  C49 UNK     0      -4.329   0.008   5.251  0.00  0.00    +0.000 A 
ATOM     22  C51 UNK     0      -3.838  -0.298   6.522  0.00  0.00    +0.000 A 
ATOM     23  C52 UNK     0      -2.469  -0.191   6.785  0.00  0.00    +0.000 A 
ATOM     24  C50 UNK     0      -1.590   0.204   5.773  0.00  0.00    +0.000 A 
ATOM     25  C48 UNK     0      -2.078   0.506   4.501  0.00  0.00    +0.000 A 
ENDBRANCH  19  20
ENDBRANCH  18  19
ENDBRANCH   6  18
ENDBRANCH   4   6
ENDBRANCH   1   2
BRANCH   1  26
ATOM     26  C27 UNK     0       0.460  -0.076  -0.536  0.00  0.00    +0.000 C 
ATOM     27  N9  UNK     0       1.288  -0.330  -1.681  0.00  0.00    +0.000 N 
ATOM     28  H73 UNK     0       1.110   0.237  -2.538  0.00  0.00    +0.000 HD
ATOM     29  O4  UNK     0       0.688  -0.673   0.550  0.00  0.00    +0.000 OA
BRANCH  27  30
ATOM     30  C21 UNK     0       2.435  -1.249  -1.644  0.00  0.00    +0.000 C 
BRANCH  30  31
ATOM     31  C20 UNK     0       3.654  -0.599  -1.029  0.00  0.00    +0.000 C 
ATOM     32  N8  UNK     0       3.820   0.826  -1.034  0.00  0.00    +0.000 N 
ATOM     33  H62 UNK     0       3.166   1.391  -1.628  0.00  0.00    +0.000 HD
ATOM     34  O3  UNK     0       4.581  -1.342  -0.612  0.00  0.00    +0.000 OA
BRANCH  32  35
ATOM     35  C15 UNK     0       4.766   1.580  -0.203  0.00  0.00    +0.000 C 
BRANCH  35  36
ATOM     36  C16 UNK     0       4.277   1.653   1.242  0.00  0.00    +0.000 C 
ATOM     37  O2  UNK     0       3.693   2.662   1.601  0.00  0.00    +0.000 OA
BRANCH  36  38
ATOM     38  C13 UNK     0       4.423   0.541   2.258  0.00  0.00    +0.000 C 
ATOM     39  O1  UNK     0       3.865  -0.696   1.891  0.00  0.00    +0.000 OA
ATOM     40  C14 UNK     0       3.141   0.054   2.841  0.00  0.00    +0.000 C 
ATOM     41  C17 UNK     0       5.636   0.451   3.177  0.00  0.00    +0.000 C 
ENDBRANCH  36  38
ENDBRANCH  35  36
BRANCH  35  42
ATOM     42  C18 UNK     0       6.217   1.082  -0.387  0.00  0.00    +0.000 C 
BRANCH  42  43
ATOM     43  C19 UNK     0       7.279   2.213  -0.359  0.00  0.00    +0.000 C 
ATOM     44  C23 UNK     0       8.668   1.635  -0.661  0.00  0.00    +0.000 C 
ATOM     45  C22 UNK     0       7.312   2.965   0.982  0.00  0.00    +0.000 C 
ENDBRANCH  42  43
ENDBRANCH  35  42
ENDBRANCH  32  35
ENDBRANCH  30  31
BRANCH  30  46
ATOM     46  C24 UNK     0       2.742  -1.825  -3.046  0.00  0.00    +0.000 C 
BRANCH  46  47
ATOM     47  C29 UNK     0       3.048  -0.771  -4.086  0.00  0.00    +0.000 A 
ATOM     48  C37 UNK     0       4.328  -0.197  -4.167  0.00  0.00    +0.000 A 
ATOM     49  C45 UNK     0       4.597   0.797  -5.114  0.00  0.00    +0.000 A 
ATOM     50  C47 UNK     0       3.590   1.210  -5.994  0.00  0.00    +0.000 A 
ATOM     51  C46 UNK     0       2.319   0.625  -5.930  0.00  0.00    +0.000 A 
ATOM     52  C38 UNK     0       2.050  -0.355  -4.981  0.00  0.00    +0.000 A 
ENDBRANCH  46  47
ENDBRANCH  30  46
ENDBRANCH  27  30
ENDBRANCH   1  26
BRANCH   1  53
ATOM     53  C26 UNK     0      -0.254   2.322  -0.169  0.00  0.00    +0.000 C 
BRANCH  53  54
ATOM     54  C28 UNK     0       0.504   3.132  -1.247  0.00  0.00    +0.000 C 
ATOM     55  C33 UNK     0       1.251   4.308  -0.608  0.00  0.00    +0.000 C 
ATOM     56  C34 UNK     0      -0.438   3.645  -2.347  0.00  0.00    +0.000 C 
ENDBRANCH  53  54
ENDBRANCH   1  53
TORSDOF 20
