REMARK  Name = C:\Users\Maximilian\Desktop\Conformers\converted_pdb\conformers_pdb\TAK_242_conf_69.pdb
REMARK  25 active torsions:
REMARK  status: ('A' for Active; 'I' for Inactive)
REMARK    1  A    between atoms: C25_1  and  N10_2
REMARK    2  A    between atoms: C25_1  and  C27_26
REMARK    3  A    between atoms: C25_1  and  C26_53
REMARK    4  A    between atoms: C31_4  and  C30_6
REMARK    5  A    between atoms: C30_6  and  C32_7
REMARK    6  A    between atoms: C30_6  and  N11_15
REMARK    7  A    between atoms: C32_7  and  C35_8
REMARK    8  A    between atoms: C35_8  and  C44_9
REMARK    9  A    between atoms: C41_16  and  C36_19
REMARK   10  A    between atoms: C36_19  and  N12_20
REMARK   11  A    between atoms: N9_27  and  C21_30
REMARK   12  A    between atoms: C21_30  and  C24_31
REMARK   13  A    between atoms: C21_30  and  C20_38
REMARK   14  A    between atoms: C24_31  and  C29_32
REMARK   15  A    between atoms: N8_39  and  C15_42
REMARK   16  A    between atoms: C15_42  and  C18_43
REMARK   17  A    between atoms: C15_42  and  C16_47
REMARK   18  A    between atoms: C18_43  and  C19_44
REMARK   19  A    between atoms: C19_44  and  C23_45
REMARK   20  A    between atoms: C19_44  and  C22_46
REMARK   21  A    between atoms: C16_47  and  C13_49
REMARK   22  A    between atoms: C13_49  and  C17_52
REMARK   23  A    between atoms: C26_53  and  C28_54
REMARK   24  A    between atoms: C28_54  and  C33_55
REMARK   25  A    between atoms: C28_54  and  C34_56
REMARK                            x       y       z     vdW  Elec       q    Type
REMARK                         _______ _______ _______ _____ _____    ______ ____
ROOT
ATOM      1  C25 UNK     0       0.475   0.854   0.558  0.00  0.00    +0.000 C 
ENDROOT
BRANCH   1   2
ATOM      2  N10 UNK     0       1.616   0.353  -0.215  0.00  0.00    +0.000 N 
ATOM      3  H77 UNK     0       1.479   0.010  -1.191  0.00  0.00    +0.000 HD
ATOM      4  C31 UNK     0       2.942   0.323   0.332  0.00  0.00    +0.000 C 
ATOM      5  O6  UNK     0       3.114   0.483   1.571  0.00  0.00    +0.000 OA
BRANCH   4   6
ATOM      6  C30 UNK     0       4.126   0.056  -0.569  0.00  0.00    +0.000 C 
BRANCH   6   7
ATOM      7  N11 UNK     0       5.391   0.329   0.125  0.00  0.00    +0.000 N 
ATOM      8  C41 UNK     0       5.737   1.650   0.575  0.00  0.00    +0.000 C 
ATOM      9  O7  UNK     0       4.990   2.631   0.310  0.00  0.00    +0.000 OA
ATOM     10  H87 UNK     0       6.086  -0.442   0.256  0.00  0.00    +0.000 HD
BRANCH   8  11
ATOM     11  C36 UNK     0       7.007   1.888   1.331  0.00  0.00    +0.000 C 
BRANCH  11  12
ATOM     12  N12 UNK     0       7.990   2.569   0.466  0.00  0.00    +0.000 NA
ATOM     13  C39 UNK     0       8.639   1.616  -0.454  0.00  0.00    +0.000 C 
ATOM     14  C42 UNK     0       9.676   2.355  -1.307  0.00  0.00    +0.000 C 
ATOM     15  O5  UNK     0      10.653   2.968  -0.488  0.00  0.00    +0.000 OA
ATOM     16  C43 UNK     0      10.043   3.920   0.362  0.00  0.00    +0.000 C 
ATOM     17  C40 UNK     0       9.016   3.247   1.280  0.00  0.00    +0.000 C 
ENDBRANCH  11  12
ENDBRANCH   8  11
ENDBRANCH   6   7
BRANCH   6  18
ATOM     18  C32 UNK     0       4.091  -1.377  -1.150  0.00  0.00    +0.000 C 
BRANCH  18  19
ATOM     19  C35 UNK     0       3.915  -2.478  -0.087  0.00  0.00    +0.000 C 
BRANCH  19  20
ATOM     20  C44 UNK     0       3.761  -3.831  -0.733  0.00  0.00    +0.000 A 
ATOM     21  C49 UNK     0       2.561  -4.167  -1.381  0.00  0.00    +0.000 A 
ATOM     22  C51 UNK     0       2.416  -5.417  -1.989  0.00  0.00    +0.000 A 
ATOM     23  C52 UNK     0       3.464  -6.341  -1.952  0.00  0.00    +0.000 A 
ATOM     24  C50 UNK     0       4.662  -6.010  -1.318  0.00  0.00    +0.000 A 
ATOM     25  C48 UNK     0       4.813  -4.761  -0.710  0.00  0.00    +0.000 A 
ENDBRANCH  19  20
ENDBRANCH  18  19
ENDBRANCH   6  18
ENDBRANCH   4   6
ENDBRANCH   1   2
BRANCH   1  26
ATOM     26  C27 UNK     0      -0.839   0.326   0.034  0.00  0.00    +0.000 C 
ATOM     27  N9  UNK     0      -1.924   0.120   0.950  0.00  0.00    +0.000 N 
ATOM     28  H73 UNK     0      -1.808   0.447   1.936  0.00  0.00    +0.000 HD
ATOM     29  O4  UNK     0      -1.001   0.121  -1.201  0.00  0.00    +0.000 OA
BRANCH  27  30
ATOM     30  C21 UNK     0      -3.132  -0.633   0.606  0.00  0.00    +0.000 C 
BRANCH  30  31
ATOM     31  C20 UNK     0      -4.339   0.247   0.778  0.00  0.00    +0.000 C 
ATOM     32  N8  UNK     0      -5.415   0.181  -0.168  0.00  0.00    +0.000 N 
ATOM     33  H62 UNK     0      -5.310  -0.468  -0.984  0.00  0.00    +0.000 HD
ATOM     34  O3  UNK     0      -4.426   0.996   1.787  0.00  0.00    +0.000 OA
BRANCH  32  35
ATOM     35  C15 UNK     0      -6.627   1.004  -0.048  0.00  0.00    +0.000 C 
BRANCH  35  36
ATOM     36  C16 UNK     0      -7.415   1.015  -1.339  0.00  0.00    +0.000 C 
ATOM     37  O2  UNK     0      -7.544  -0.010  -1.990  0.00  0.00    +0.000 OA
BRANCH  36  38
ATOM     38  C13 UNK     0      -8.082   2.275  -1.811  0.00  0.00    +0.000 C 
ATOM     39  O1  UNK     0      -8.063   2.425  -3.211  0.00  0.00    +0.000 OA
ATOM     40  C14 UNK     0      -7.238   3.301  -2.465  0.00  0.00    +0.000 C 
ATOM     41  C17 UNK     0      -9.403   2.712  -1.178  0.00  0.00    +0.000 C 
ENDBRANCH  36  38
ENDBRANCH  35  36
BRANCH  35  42
ATOM     42  C18 UNK     0      -7.499   0.557   1.152  0.00  0.00    +0.000 C 
BRANCH  42  43
ATOM     43  C19 UNK     0      -7.927  -0.938   1.127  0.00  0.00    +0.000 C 
ATOM     44  C23 UNK     0      -9.358  -1.105   0.592  0.00  0.00    +0.000 C 
ATOM     45  C22 UNK     0      -7.828  -1.554   2.532  0.00  0.00    +0.000 C 
ENDBRANCH  42  43
ENDBRANCH  35  42
ENDBRANCH  32  35
ENDBRANCH  30  31
BRANCH  30  46
ATOM     46  C24 UNK     0      -3.260  -1.876   1.502  0.00  0.00    +0.000 C 
BRANCH  46  47
ATOM     47  C29 UNK     0      -2.078  -2.797   1.336  0.00  0.00    +0.000 A 
ATOM     48  C37 UNK     0      -2.081  -3.775   0.329  0.00  0.00    +0.000 A 
ATOM     49  C45 UNK     0      -0.979  -4.618   0.159  0.00  0.00    +0.000 A 
ATOM     50  C47 UNK     0       0.135  -4.486   0.991  0.00  0.00    +0.000 A 
ATOM     51  C46 UNK     0       0.159  -3.497   1.978  0.00  0.00    +0.000 A 
ATOM     52  C38 UNK     0      -0.939  -2.650   2.146  0.00  0.00    +0.000 A 
ENDBRANCH  46  47
ENDBRANCH  30  46
ENDBRANCH  27  30
ENDBRANCH   1  26
BRANCH   1  53
ATOM     53  C26 UNK     0       0.491   2.400   0.666  0.00  0.00    +0.000 C 
BRANCH  53  54
ATOM     54  C28 UNK     0       0.108   3.177  -0.623  0.00  0.00    +0.000 C 
ATOM     55  C33 UNK     0       1.159   3.022  -1.735  0.00  0.00    +0.000 C 
ATOM     56  C34 UNK     0      -0.079   4.665  -0.299  0.00  0.00    +0.000 C 
ENDBRANCH  53  54
ENDBRANCH   1  53
TORSDOF 20
