REMARK  Name = C:\Users\Maximilian\Desktop\Conformers\converted_pdb\conformers_pdb\TAK_242_conf_4.pdb
REMARK  25 active torsions:
REMARK  status: ('A' for Active; 'I' for Inactive)
REMARK    1  A    between atoms: C25_1  and  N10_2
REMARK    2  A    between atoms: C25_1  and  C27_26
REMARK    3  A    between atoms: C25_1  and  C26_53
REMARK    4  A    between atoms: C31_4  and  C30_6
REMARK    5  A    between atoms: C30_6  and  C32_7
REMARK    6  A    between atoms: C30_6  and  N11_15
REMARK    7  A    between atoms: C32_7  and  C35_8
REMARK    8  A    between atoms: C35_8  and  C44_9
REMARK    9  A    between atoms: C41_16  and  C36_19
REMARK   10  A    between atoms: C36_19  and  N12_20
REMARK   11  A    between atoms: N9_27  and  C21_30
REMARK   12  A    between atoms: C21_30  and  C24_31
REMARK   13  A    between atoms: C21_30  and  C20_38
REMARK   14  A    between atoms: C24_31  and  C29_32
REMARK   15  A    between atoms: N8_39  and  C15_42
REMARK   16  A    between atoms: C15_42  and  C18_43
REMARK   17  A    between atoms: C15_42  and  C16_47
REMARK   18  A    between atoms: C18_43  and  C19_44
REMARK   19  A    between atoms: C19_44  and  C23_45
REMARK   20  A    between atoms: C19_44  and  C22_46
REMARK   21  A    between atoms: C16_47  and  C13_49
REMARK   22  A    between atoms: C13_49  and  C17_52
REMARK   23  A    between atoms: C26_53  and  C28_54
REMARK   24  A    between atoms: C28_54  and  C33_55
REMARK   25  A    between atoms: C28_54  and  C34_56
REMARK                            x       y       z     vdW  Elec       q    Type
REMARK                         _______ _______ _______ _____ _____    ______ ____
ROOT
ATOM      1  C25 UNK     0       0.446  -0.390  -0.901  0.00  0.00    +0.000 C 
ENDROOT
BRANCH   1   2
ATOM      2  N10 UNK     0       1.395  -0.224   0.203  0.00  0.00    +0.000 N 
ATOM      3  H77 UNK     0       1.739  -1.078   0.715  0.00  0.00    +0.000 HD
ATOM      4  C31 UNK     0       2.110   1.008   0.383  0.00  0.00    +0.000 C 
ATOM      5  O6  UNK     0       1.538   2.100   0.133  0.00  0.00    +0.000 OA
BRANCH   4   6
ATOM      6  C30 UNK     0       3.518   0.999   0.929  0.00  0.00    +0.000 C 
BRANCH   6   7
ATOM      7  N11 UNK     0       4.278   2.104   0.333  0.00  0.00    +0.000 N 
ATOM      8  C41 UNK     0       4.839   2.025  -0.980  0.00  0.00    +0.000 C 
ATOM      9  O7  UNK     0       4.392   1.185  -1.808  0.00  0.00    +0.000 OA
ATOM     10  H87 UNK     0       4.539   2.923   0.926  0.00  0.00    +0.000 HD
BRANCH   8  11
ATOM     11  C36 UNK     0       6.011   2.889  -1.358  0.00  0.00    +0.000 C 
BRANCH  11  12
ATOM     12  N12 UNK     0       7.289   2.140  -1.275  0.00  0.00    +0.000 NA
ATOM     13  C39 UNK     0       8.429   2.981  -1.732  0.00  0.00    +0.000 C 
ATOM     14  C42 UNK     0       9.213   3.566  -0.534  0.00  0.00    +0.000 C 
ATOM     15  O5  UNK     0       9.736   2.574   0.353  0.00  0.00    +0.000 OA
ATOM     16  C43 UNK     0       8.989   1.373   0.369  0.00  0.00    +0.000 C 
ATOM     17  C40 UNK     0       7.497   1.584   0.081  0.00  0.00    +0.000 C 
ENDBRANCH  11  12
ENDBRANCH   8  11
ENDBRANCH   6   7
BRANCH   6  18
ATOM     18  C32 UNK     0       3.520   1.134   2.475  0.00  0.00    +0.000 C 
BRANCH  18  19
ATOM     19  C35 UNK     0       3.317  -0.195   3.222  0.00  0.00    +0.000 C 
BRANCH  19  20
ATOM     20  C44 UNK     0       4.502  -1.112   3.076  0.00  0.00    +0.000 A 
ATOM     21  C49 UNK     0       4.460  -2.207   2.193  0.00  0.00    +0.000 A 
ATOM     22  C51 UNK     0       5.579  -3.023   2.028  0.00  0.00    +0.000 A 
ATOM     23  C52 UNK     0       6.751  -2.764   2.742  0.00  0.00    +0.000 A 
ATOM     24  C50 UNK     0       6.810  -1.670   3.614  0.00  0.00    +0.000 A 
ATOM     25  C48 UNK     0       5.690  -0.855   3.789  0.00  0.00    +0.000 A 
ENDBRANCH  19  20
ENDBRANCH  18  19
ENDBRANCH   6  18
ENDBRANCH   4   6
ENDBRANCH   1   2
BRANCH   1  26
ATOM     26  C27 UNK     0      -0.895   0.194  -0.555  0.00  0.00    +0.000 C 
ATOM     27  N9  UNK     0      -1.800   0.565  -1.604  0.00  0.00    +0.000 N 
ATOM     28  H73 UNK     0      -1.329   0.820  -2.500  0.00  0.00    +0.000 HD
ATOM     29  O4  UNK     0      -1.238   0.314   0.650  0.00  0.00    +0.000 OA
BRANCH  27  30
ATOM     30  C21 UNK     0      -3.188   1.027  -1.412  0.00  0.00    +0.000 C 
BRANCH  30  31
ATOM     31  C20 UNK     0      -3.962   0.134  -0.475  0.00  0.00    +0.000 C 
ATOM     32  N8  UNK     0      -5.171   0.619   0.136  0.00  0.00    +0.000 N 
ATOM     33  H62 UNK     0      -5.611   1.463  -0.286  0.00  0.00    +0.000 HD
ATOM     34  O3  UNK     0      -3.572  -1.042  -0.267  0.00  0.00    +0.000 OA
BRANCH  32  35
ATOM     35  C15 UNK     0      -5.808  -0.019   1.292  0.00  0.00    +0.000 C 
BRANCH  35  36
ATOM     36  C16 UNK     0      -5.819   0.952   2.451  0.00  0.00    +0.000 C 
ATOM     37  O2  UNK     0      -5.458   0.564   3.549  0.00  0.00    +0.000 OA
BRANCH  36  38
ATOM     38  C13 UNK     0      -6.240   2.393   2.292  0.00  0.00    +0.000 C 
ATOM     39  O1  UNK     0      -6.984   2.851   3.399  0.00  0.00    +0.000 OA
ATOM     40  C14 UNK     0      -7.680   2.714   2.183  0.00  0.00    +0.000 C 
ATOM     41  C17 UNK     0      -5.221   3.438   1.828  0.00  0.00    +0.000 C 
ENDBRANCH  36  38
ENDBRANCH  35  36
BRANCH  35  42
ATOM     42  C18 UNK     0      -7.229  -0.492   0.908  0.00  0.00    +0.000 C 
BRANCH  42  43
ATOM     43  C19 UNK     0      -7.977  -1.216   2.055  0.00  0.00    +0.000 C 
ATOM     44  C23 UNK     0      -7.370  -2.584   2.374  0.00  0.00    +0.000 C 
ATOM     45  C22 UNK     0      -9.458  -1.393   1.697  0.00  0.00    +0.000 C 
ENDBRANCH  42  43
ENDBRANCH  35  42
ENDBRANCH  32  35
ENDBRANCH  30  31
BRANCH  30  46
ATOM     46  C24 UNK     0      -3.906   1.152  -2.779  0.00  0.00    +0.000 C 
BRANCH  46  47
ATOM     47  C29 UNK     0      -4.026  -0.176  -3.492  0.00  0.00    +0.000 A 
ATOM     48  C37 UNK     0      -3.012  -0.614  -4.360  0.00  0.00    +0.000 A 
ATOM     49  C45 UNK     0      -3.099  -1.864  -4.972  0.00  0.00    +0.000 A 
ATOM     50  C47 UNK     0      -4.206  -2.688  -4.721  0.00  0.00    +0.000 A 
ATOM     51  C46 UNK     0      -5.238  -2.241  -3.887  0.00  0.00    +0.000 A 
ATOM     52  C38 UNK     0      -5.144  -0.985  -3.270  0.00  0.00    +0.000 A 
ENDBRANCH  46  47
ENDBRANCH  30  46
ENDBRANCH  27  30
ENDBRANCH   1  26
BRANCH   1  53
ATOM     53  C26 UNK     0       0.265  -1.868  -1.313  0.00  0.00    +0.000 C 
BRANCH  53  54
ATOM     54  C28 UNK     0       1.571  -2.647  -1.600  0.00  0.00    +0.000 C 
ATOM     55  C33 UNK     0       2.457  -1.946  -2.649  0.00  0.00    +0.000 C 
ATOM     56  C34 UNK     0       1.243  -4.075  -2.059  0.00  0.00    +0.000 C 
ENDBRANCH  53  54
ENDBRANCH   1  53
TORSDOF 20
