REMARK  Name = C:\Users\Maximilian\Desktop\Conformers\converted_pdb\conformers_pdb\TAK_242_conf_67.pdb
REMARK  25 active torsions:
REMARK  status: ('A' for Active; 'I' for Inactive)
REMARK    1  A    between atoms: C25_1  and  N10_2
REMARK    2  A    between atoms: C25_1  and  C27_26
REMARK    3  A    between atoms: C25_1  and  C26_53
REMARK    4  A    between atoms: C31_4  and  C30_6
REMARK    5  A    between atoms: C30_6  and  C32_7
REMARK    6  A    between atoms: C30_6  and  N11_15
REMARK    7  A    between atoms: C32_7  and  C35_8
REMARK    8  A    between atoms: C35_8  and  C44_9
REMARK    9  A    between atoms: C41_16  and  C36_19
REMARK   10  A    between atoms: C36_19  and  N12_20
REMARK   11  A    between atoms: N9_27  and  C21_30
REMARK   12  A    between atoms: C21_30  and  C24_31
REMARK   13  A    between atoms: C21_30  and  C20_38
REMARK   14  A    between atoms: C24_31  and  C29_32
REMARK   15  A    between atoms: N8_39  and  C15_42
REMARK   16  A    between atoms: C15_42  and  C18_43
REMARK   17  A    between atoms: C15_42  and  C16_47
REMARK   18  A    between atoms: C18_43  and  C19_44
REMARK   19  A    between atoms: C19_44  and  C23_45
REMARK   20  A    between atoms: C19_44  and  C22_46
REMARK   21  A    between atoms: C16_47  and  C13_49
REMARK   22  A    between atoms: C13_49  and  C17_52
REMARK   23  A    between atoms: C26_53  and  C28_54
REMARK   24  A    between atoms: C28_54  and  C33_55
REMARK   25  A    between atoms: C28_54  and  C34_56
REMARK                            x       y       z     vdW  Elec       q    Type
REMARK                         _______ _______ _______ _____ _____    ______ ____
ROOT
ATOM      1  C25 UNK     0       0.717  -0.916   1.076  0.00  0.00    +0.000 C 
ENDROOT
BRANCH   1   2
ATOM      2  N10 UNK     0       2.096  -0.508   0.783  0.00  0.00    +0.000 N 
ATOM      3  H77 UNK     0       2.469   0.395   1.143  0.00  0.00    +0.000 HD
ATOM      4  C31 UNK     0       3.019  -1.394   0.125  0.00  0.00    +0.000 C 
ATOM      5  O6  UNK     0       2.609  -2.477  -0.380  0.00  0.00    +0.000 OA
BRANCH   4   6
ATOM      6  C30 UNK     0       4.490  -1.070   0.075  0.00  0.00    +0.000 C 
BRANCH   6   7
ATOM      7  N11 UNK     0       4.685   0.311  -0.379  0.00  0.00    +0.000 N 
ATOM      8  C41 UNK     0       4.438   0.707  -1.735  0.00  0.00    +0.000 C 
ATOM      9  O7  UNK     0       3.951  -0.114  -2.560  0.00  0.00    +0.000 OA
ATOM     10  H87 UNK     0       5.067   1.021   0.283  0.00  0.00    +0.000 HD
BRANCH   8  11
ATOM     11  C36 UNK     0       4.779   2.094  -2.197  0.00  0.00    +0.000 C 
BRANCH  11  12
ATOM     12  N12 UNK     0       5.886   2.048  -3.174  0.00  0.00    +0.000 NA
ATOM     13  C39 UNK     0       7.200   1.777  -2.538  0.00  0.00    +0.000 C 
ATOM     14  C42 UNK     0       7.981   3.064  -2.210  0.00  0.00    +0.000 C 
ATOM     15  O5  UNK     0       7.098   4.141  -1.987  0.00  0.00    +0.000 OA
ATOM     16  C43 UNK     0       6.448   4.491  -3.198  0.00  0.00    +0.000 C 
ATOM     17  C40 UNK     0       5.940   3.268  -4.000  0.00  0.00    +0.000 C 
ENDBRANCH  11  12
ENDBRANCH   8  11
ENDBRANCH   6   7
BRANCH   6  18
ATOM     18  C32 UNK     0       5.136  -1.272   1.460  0.00  0.00    +0.000 C 
BRANCH  18  19
ATOM     19  C35 UNK     0       5.128  -2.745   1.891  0.00  0.00    +0.000 C 
BRANCH  19  20
ATOM     20  C44 UNK     0       5.776  -2.910   3.239  0.00  0.00    +0.000 A 
ATOM     21  C49 UNK     0       5.020  -2.761   4.412  0.00  0.00    +0.000 A 
ATOM     22  C51 UNK     0       5.624  -2.916   5.664  0.00  0.00    +0.000 A 
ATOM     23  C52 UNK     0       6.987  -3.215   5.753  0.00  0.00    +0.000 A 
ATOM     24  C50 UNK     0       7.747  -3.353   4.589  0.00  0.00    +0.000 A 
ATOM     25  C48 UNK     0       7.149  -3.189   3.335  0.00  0.00    +0.000 A 
ENDBRANCH  19  20
ENDBRANCH  18  19
ENDBRANCH   6  18
ENDBRANCH   4   6
ENDBRANCH   1   2
BRANCH   1  26
ATOM     26  C27 UNK     0      -0.093  -1.097  -0.186  0.00  0.00    +0.000 C 
ATOM     27  N9  UNK     0      -1.287  -1.890  -0.148  0.00  0.00    +0.000 N 
ATOM     28  H73 UNK     0      -1.502  -2.425   0.725  0.00  0.00    +0.000 HD
ATOM     29  O4  UNK     0       0.267  -0.547  -1.263  0.00  0.00    +0.000 OA
BRANCH  27  30
ATOM     30  C21 UNK     0      -2.275  -1.861  -1.229  0.00  0.00    +0.000 C 
BRANCH  30  31
ATOM     31  C20 UNK     0      -3.077  -0.590  -1.149  0.00  0.00    +0.000 C 
ATOM     32  N8  UNK     0      -3.737  -0.235   0.079  0.00  0.00    +0.000 N 
ATOM     33  H62 UNK     0      -3.543  -0.815   0.920  0.00  0.00    +0.000 HD
ATOM     34  O3  UNK     0      -3.206   0.126  -2.176  0.00  0.00    +0.000 OA
BRANCH  32  35
ATOM     35  C15 UNK     0      -4.826   0.748   0.130  0.00  0.00    +0.000 C 
BRANCH  35  36
ATOM     36  C16 UNK     0      -5.707   0.437   1.322  0.00  0.00    +0.000 C 
ATOM     37  O2  UNK     0      -5.347   0.759   2.448  0.00  0.00    +0.000 OA
BRANCH  36  38
ATOM     38  C13 UNK     0      -6.960  -0.386   1.149  0.00  0.00    +0.000 C 
ATOM     39  O1  UNK     0      -7.407  -0.980   2.345  0.00  0.00    +0.000 OA
ATOM     40  C14 UNK     0      -6.833  -1.843   1.386  0.00  0.00    +0.000 C 
ATOM     41  C17 UNK     0      -8.104   0.101   0.260  0.00  0.00    +0.000 C 
ENDBRANCH  36  38
ENDBRANCH  35  36
BRANCH  35  42
ATOM     42  C18 UNK     0      -4.226   2.176   0.174  0.00  0.00    +0.000 C 
BRANCH  42  43
ATOM     43  C19 UNK     0      -5.212   3.358  -0.014  0.00  0.00    +0.000 C 
ATOM     44  C23 UNK     0      -6.090   3.614   1.217  0.00  0.00    +0.000 C 
ATOM     45  C22 UNK     0      -6.066   3.234  -1.280  0.00  0.00    +0.000 C 
ENDBRANCH  42  43
ENDBRANCH  35  42
ENDBRANCH  32  35
ENDBRANCH  30  31
BRANCH  30  46
ATOM     46  C24 UNK     0      -3.200  -3.090  -1.137  0.00  0.00    +0.000 C 
BRANCH  46  47
ATOM     47  C29 UNK     0      -4.178  -3.150  -2.290  0.00  0.00    +0.000 A 
ATOM     48  C37 UNK     0      -3.784  -3.701  -3.523  0.00  0.00    +0.000 A 
ATOM     49  C45 UNK     0      -4.668  -3.707  -4.608  0.00  0.00    +0.000 A 
ATOM     50  C47 UNK     0      -5.949  -3.168  -4.470  0.00  0.00    +0.000 A 
ATOM     51  C46 UNK     0      -6.346  -2.618  -3.250  0.00  0.00    +0.000 A 
ATOM     52  C38 UNK     0      -5.464  -2.608  -2.165  0.00  0.00    +0.000 A 
ENDBRANCH  46  47
ENDBRANCH  30  46
ENDBRANCH  27  30
ENDBRANCH   1  26
BRANCH   1  53
ATOM     53  C26 UNK     0       0.004   0.021   2.090  0.00  0.00    +0.000 C 
BRANCH  53  54
ATOM     54  C28 UNK     0       0.094   1.555   1.864  0.00  0.00    +0.000 C 
ATOM     55  C33 UNK     0      -0.768   2.273   2.911  0.00  0.00    +0.000 C 
ATOM     56  C34 UNK     0      -0.331   1.991   0.458  0.00  0.00    +0.000 C 
ENDBRANCH  53  54
ENDBRANCH   1  53
TORSDOF 20
