REMARK  Name = C:\Users\Maximilian\Desktop\Conformers\converted_pdb\conformers_pdb\TAK_242_conf_39.pdb
REMARK  25 active torsions:
REMARK  status: ('A' for Active; 'I' for Inactive)
REMARK    1  A    between atoms: C25_1  and  N10_2
REMARK    2  A    between atoms: C25_1  and  C27_26
REMARK    3  A    between atoms: C25_1  and  C26_53
REMARK    4  A    between atoms: C31_4  and  C30_6
REMARK    5  A    between atoms: C30_6  and  C32_7
REMARK    6  A    between atoms: C30_6  and  N11_15
REMARK    7  A    between atoms: C32_7  and  C35_8
REMARK    8  A    between atoms: C35_8  and  C44_9
REMARK    9  A    between atoms: C41_16  and  C36_19
REMARK   10  A    between atoms: C36_19  and  N12_20
REMARK   11  A    between atoms: N9_27  and  C21_30
REMARK   12  A    between atoms: C21_30  and  C24_31
REMARK   13  A    between atoms: C21_30  and  C20_38
REMARK   14  A    between atoms: C24_31  and  C29_32
REMARK   15  A    between atoms: N8_39  and  C15_42
REMARK   16  A    between atoms: C15_42  and  C18_43
REMARK   17  A    between atoms: C15_42  and  C16_47
REMARK   18  A    between atoms: C18_43  and  C19_44
REMARK   19  A    between atoms: C19_44  and  C23_45
REMARK   20  A    between atoms: C19_44  and  C22_46
REMARK   21  A    between atoms: C16_47  and  C13_49
REMARK   22  A    between atoms: C13_49  and  C17_52
REMARK   23  A    between atoms: C26_53  and  C28_54
REMARK   24  A    between atoms: C28_54  and  C33_55
REMARK   25  A    between atoms: C28_54  and  C34_56
REMARK                            x       y       z     vdW  Elec       q    Type
REMARK                         _______ _______ _______ _____ _____    ______ ____
ROOT
ATOM      1  C25 UNK     0      -0.447  -0.332  -0.109  0.00  0.00    +0.000 C 
ENDROOT
BRANCH   1   2
ATOM      2  N10 UNK     0      -1.591  -0.949  -0.792  0.00  0.00    +0.000 N 
ATOM      3  H77 UNK     0      -1.420  -1.519  -1.649  0.00  0.00    +0.000 HD
ATOM      4  C31 UNK     0      -2.915  -0.926  -0.242  0.00  0.00    +0.000 C 
ATOM      5  O6  UNK     0      -3.103  -0.470   0.918  0.00  0.00    +0.000 OA
BRANCH   4   6
ATOM      6  C30 UNK     0      -4.072  -1.506  -1.027  0.00  0.00    +0.000 C 
BRANCH   6   7
ATOM      7  N11 UNK     0      -5.354  -1.263  -0.350  0.00  0.00    +0.000 N 
ATOM      8  C41 UNK     0      -6.504  -2.099  -0.550  0.00  0.00    +0.000 C 
ATOM      9  O7  UNK     0      -6.384  -3.206  -1.142  0.00  0.00    +0.000 OA
ATOM     10  H87 UNK     0      -5.478  -0.379   0.191  0.00  0.00    +0.000 HD
BRANCH   8  11
ATOM     11  C36 UNK     0      -7.874  -1.649  -0.119  0.00  0.00    +0.000 C 
BRANCH  11  12
ATOM     12  N12 UNK     0      -7.808  -0.719   1.025  0.00  0.00    +0.000 NA
ATOM     13  C39 UNK     0      -7.480  -1.424   2.278  0.00  0.00    +0.000 C 
ATOM     14  C42 UNK     0      -7.411  -0.418   3.446  0.00  0.00    +0.000 C 
ATOM     15  O5  UNK     0      -7.755   0.895   3.041  0.00  0.00    +0.000 OA
ATOM     16  C43 UNK     0      -9.040   0.893   2.451  0.00  0.00    +0.000 C 
ATOM     17  C40 UNK     0      -9.080   0.009   1.186  0.00  0.00    +0.000 C 
ENDBRANCH  11  12
ENDBRANCH   8  11
ENDBRANCH   6   7
BRANCH   6  18
ATOM     18  C32 UNK     0      -4.130  -0.985  -2.486  0.00  0.00    +0.000 C 
BRANCH  18  19
ATOM     19  C35 UNK     0      -4.009   0.545  -2.649  0.00  0.00    +0.000 C 
BRANCH  19  20
ATOM     20  C44 UNK     0      -5.104   1.301  -1.940  0.00  0.00    +0.000 A 
ATOM     21  C49 UNK     0      -4.810   2.082  -0.808  0.00  0.00    +0.000 A 
ATOM     22  C51 UNK     0      -5.834   2.742  -0.123  0.00  0.00    +0.000 A 
ATOM     23  C52 UNK     0      -7.153   2.649  -0.575  0.00  0.00    +0.000 A 
ATOM     24  C50 UNK     0      -7.451   1.888  -1.709  0.00  0.00    +0.000 A 
ATOM     25  C48 UNK     0      -6.434   1.211  -2.387  0.00  0.00    +0.000 A 
ENDBRANCH  19  20
ENDBRANCH  18  19
ENDBRANCH   6  18
ENDBRANCH   4   6
ENDBRANCH   1   2
BRANCH   1  26
ATOM     26  C27 UNK     0       0.550   0.240  -1.089  0.00  0.00    +0.000 C 
ATOM     27  N9  UNK     0       1.595   1.105  -0.619  0.00  0.00    +0.000 N 
ATOM     28  H73 UNK     0       1.654   1.278   0.408  0.00  0.00    +0.000 HD
ATOM     29  O4  UNK     0       0.466  -0.038  -2.321  0.00  0.00    +0.000 OA
BRANCH  27  30
ATOM     30  C21 UNK     0       2.657   1.624  -1.490  0.00  0.00    +0.000 C 
BRANCH  30  31
ATOM     31  C20 UNK     0       3.906   0.782  -1.372  0.00  0.00    +0.000 C 
ATOM     32  N8  UNK     0       4.420   0.401  -0.078  0.00  0.00    +0.000 N 
ATOM     33  H62 UNK     0       3.875   0.703   0.761  0.00  0.00    +0.000 HD
ATOM     34  O3  UNK     0       4.487   0.419  -2.429  0.00  0.00    +0.000 OA
BRANCH  32  35
ATOM     35  C15 UNK     0       5.629  -0.397   0.202  0.00  0.00    +0.000 C 
BRANCH  35  36
ATOM     36  C16 UNK     0       5.659  -1.752  -0.495  0.00  0.00    +0.000 C 
ATOM     37  O2  UNK     0       4.893  -1.987  -1.419  0.00  0.00    +0.000 OA
BRANCH  36  38
ATOM     38  C13 UNK     0       6.591  -2.852  -0.022  0.00  0.00    +0.000 C 
ATOM     39  O1  UNK     0       7.679  -3.033  -0.897  0.00  0.00    +0.000 OA
ATOM     40  C14 UNK     0       6.727  -4.074  -0.861  0.00  0.00    +0.000 C 
ATOM     41  C17 UNK     0       6.999  -2.959   1.451  0.00  0.00    +0.000 C 
ENDBRANCH  36  38
ENDBRANCH  35  36
BRANCH  35  42
ATOM     42  C18 UNK     0       6.938   0.432   0.094  0.00  0.00    +0.000 C 
BRANCH  42  43
ATOM     43  C19 UNK     0       7.297   1.067  -1.272  0.00  0.00    +0.000 C 
ATOM     44  C23 UNK     0       7.723   0.017  -2.309  0.00  0.00    +0.000 C 
ATOM     45  C22 UNK     0       8.433   2.085  -1.086  0.00  0.00    +0.000 C 
ENDBRANCH  42  43
ENDBRANCH  35  42
ENDBRANCH  32  35
ENDBRANCH  30  31
BRANCH  30  46
ATOM     46  C24 UNK     0       2.922   3.126  -1.236  0.00  0.00    +0.000 C 
BRANCH  46  47
ATOM     47  C29 UNK     0       3.360   3.462   0.171  0.00  0.00    +0.000 A 
ATOM     48  C37 UNK     0       4.726   3.532   0.493  0.00  0.00    +0.000 A 
ATOM     49  C45 UNK     0       5.130   3.851   1.794  0.00  0.00    +0.000 A 
ATOM     50  C47 UNK     0       4.176   4.109   2.781  0.00  0.00    +0.000 A 
ATOM     51  C46 UNK     0       2.815   4.061   2.465  0.00  0.00    +0.000 A 
ATOM     52  C38 UNK     0       2.407   3.743   1.166  0.00  0.00    +0.000 A 
ENDBRANCH  46  47
ENDBRANCH  30  46
ENDBRANCH  27  30
ENDBRANCH   1  26
BRANCH   1  53
ATOM     53  C26 UNK     0       0.193  -1.321   0.894  0.00  0.00    +0.000 C 
BRANCH  53  54
ATOM     54  C28 UNK     0       0.653  -2.680   0.300  0.00  0.00    +0.000 C 
ATOM     55  C33 UNK     0       0.762  -3.727   1.415  0.00  0.00    +0.000 C 
ATOM     56  C34 UNK     0       2.010  -2.570  -0.409  0.00  0.00    +0.000 C 
ENDBRANCH  53  54
ENDBRANCH   1  53
TORSDOF 20
