REMARK  Name = C:\Users\Maximilian\Desktop\Conformers\converted_pdb\conformers_pdb\TAK_242_conf_33.pdb
REMARK  25 active torsions:
REMARK  status: ('A' for Active; 'I' for Inactive)
REMARK    1  A    between atoms: C25_1  and  N10_2
REMARK    2  A    between atoms: C25_1  and  C27_26
REMARK    3  A    between atoms: C25_1  and  C26_53
REMARK    4  A    between atoms: C31_4  and  C30_6
REMARK    5  A    between atoms: C30_6  and  C32_7
REMARK    6  A    between atoms: C30_6  and  N11_15
REMARK    7  A    between atoms: C32_7  and  C35_8
REMARK    8  A    between atoms: C35_8  and  C44_9
REMARK    9  A    between atoms: C41_16  and  C36_19
REMARK   10  A    between atoms: C36_19  and  N12_20
REMARK   11  A    between atoms: N9_27  and  C21_30
REMARK   12  A    between atoms: C21_30  and  C24_31
REMARK   13  A    between atoms: C21_30  and  C20_38
REMARK   14  A    between atoms: C24_31  and  C29_32
REMARK   15  A    between atoms: N8_39  and  C15_42
REMARK   16  A    between atoms: C15_42  and  C18_43
REMARK   17  A    between atoms: C15_42  and  C16_47
REMARK   18  A    between atoms: C18_43  and  C19_44
REMARK   19  A    between atoms: C19_44  and  C23_45
REMARK   20  A    between atoms: C19_44  and  C22_46
REMARK   21  A    between atoms: C16_47  and  C13_49
REMARK   22  A    between atoms: C13_49  and  C17_52
REMARK   23  A    between atoms: C26_53  and  C28_54
REMARK   24  A    between atoms: C28_54  and  C33_55
REMARK   25  A    between atoms: C28_54  and  C34_56
REMARK                            x       y       z     vdW  Elec       q    Type
REMARK                         _______ _______ _______ _____ _____    ______ ____
ROOT
ATOM      1  C25 UNK     0       0.651  -2.170   0.910  0.00  0.00    +0.000 C 
ENDROOT
BRANCH   1   2
ATOM      2  N10 UNK     0       1.921  -1.435   0.830  0.00  0.00    +0.000 N 
ATOM      3  H77 UNK     0       2.084  -0.680   1.534  0.00  0.00    +0.000 HD
ATOM      4  C31 UNK     0       2.827  -1.531  -0.280  0.00  0.00    +0.000 C 
ATOM      5  O6  UNK     0       2.646  -2.405  -1.170  0.00  0.00    +0.000 OA
BRANCH   4   6
ATOM      6  C30 UNK     0       3.970  -0.551  -0.427  0.00  0.00    +0.000 C 
BRANCH   6   7
ATOM      7  N11 UNK     0       3.428   0.799  -0.637  0.00  0.00    +0.000 N 
ATOM      8  C41 UNK     0       4.196   1.877  -1.179  0.00  0.00    +0.000 C 
ATOM      9  O7  UNK     0       5.399   1.700  -1.508  0.00  0.00    +0.000 OA
ATOM     10  H87 UNK     0       2.423   0.981  -0.412  0.00  0.00    +0.000 HD
BRANCH   8  11
ATOM     11  C36 UNK     0       3.550   3.212  -1.421  0.00  0.00    +0.000 C 
BRANCH  11  12
ATOM     12  N12 UNK     0       3.342   3.425  -2.869  0.00  0.00    +0.000 NA
ATOM     13  C39 UNK     0       2.202   2.648  -3.408  0.00  0.00    +0.000 C 
ATOM     14  C42 UNK     0       0.871   3.423  -3.353  0.00  0.00    +0.000 C 
ATOM     15  O5  UNK     0       0.912   4.426  -2.362  0.00  0.00    +0.000 OA
ATOM     16  C43 UNK     0       1.837   5.431  -2.737  0.00  0.00    +0.000 C 
ATOM     17  C40 UNK     0       3.200   4.855  -3.202  0.00  0.00    +0.000 C 
ENDBRANCH  11  12
ENDBRANCH   8  11
ENDBRANCH   6   7
BRANCH   6  18
ATOM     18  C32 UNK     0       4.896  -0.561   0.809  0.00  0.00    +0.000 C 
BRANCH  18  19
ATOM     19  C35 UNK     0       5.515  -1.935   1.121  0.00  0.00    +0.000 C 
BRANCH  19  20
ATOM     20  C44 UNK     0       6.504  -2.365   0.070  0.00  0.00    +0.000 A 
ATOM     21  C49 UNK     0       7.805  -1.837   0.066  0.00  0.00    +0.000 A 
ATOM     22  C51 UNK     0       8.722  -2.228  -0.913  0.00  0.00    +0.000 A 
ATOM     23  C52 UNK     0       8.353  -3.156  -1.889  0.00  0.00    +0.000 A 
ATOM     24  C50 UNK     0       7.055  -3.674  -1.903  0.00  0.00    +0.000 A 
ATOM     25  C48 UNK     0       6.129  -3.278  -0.932  0.00  0.00    +0.000 A 
ENDBRANCH  19  20
ENDBRANCH  18  19
ENDBRANCH   6  18
ENDBRANCH   4   6
ENDBRANCH   1   2
BRANCH   1  26
ATOM     26  C27 UNK     0      -0.491  -1.295   0.459  0.00  0.00    +0.000 C 
ATOM     27  N9  UNK     0      -1.809  -1.854   0.358  0.00  0.00    +0.000 N 
ATOM     28  H73 UNK     0      -1.928  -2.873   0.565  0.00  0.00    +0.000 HD
ATOM     29  O4  UNK     0      -0.297  -0.077   0.188  0.00  0.00    +0.000 OA
BRANCH  27  30
ATOM     30  C21 UNK     0      -2.979  -1.045  -0.003  0.00  0.00    +0.000 C 
BRANCH  30  31
ATOM     31  C20 UNK     0      -3.236   0.011   1.042  0.00  0.00    +0.000 C 
ATOM     32  N8  UNK     0      -3.933   1.210   0.677  0.00  0.00    +0.000 N 
ATOM     33  H62 UNK     0      -4.380   1.254  -0.267  0.00  0.00    +0.000 HD
ATOM     34  O3  UNK     0      -2.881  -0.182   2.240  0.00  0.00    +0.000 OA
BRANCH  32  35
ATOM     35  C15 UNK     0      -3.905   2.427   1.496  0.00  0.00    +0.000 C 
BRANCH  35  36
ATOM     36  C16 UNK     0      -2.995   3.455   0.846  0.00  0.00    +0.000 C 
ATOM     37  O2  UNK     0      -2.652   3.314  -0.319  0.00  0.00    +0.000 OA
BRANCH  36  38
ATOM     38  C13 UNK     0      -2.495   4.655   1.614  0.00  0.00    +0.000 C 
ATOM     39  O1  UNK     0      -3.456   5.682   1.714  0.00  0.00    +0.000 OA
ATOM     40  C14 UNK     0      -2.350   5.936   0.875  0.00  0.00    +0.000 C 
ATOM     41  C17 UNK     0      -1.678   4.468   2.892  0.00  0.00    +0.000 C 
ENDBRANCH  36  38
ENDBRANCH  35  36
BRANCH  35  42
ATOM     42  C18 UNK     0      -5.336   2.987   1.669  0.00  0.00    +0.000 C 
BRANCH  42  43
ATOM     43  C19 UNK     0      -6.230   2.129   2.604  0.00  0.00    +0.000 C 
ATOM     44  C23 UNK     0      -6.783   0.882   1.899  0.00  0.00    +0.000 C 
ATOM     45  C22 UNK     0      -7.391   2.974   3.148  0.00  0.00    +0.000 C 
ENDBRANCH  42  43
ENDBRANCH  35  42
ENDBRANCH  32  35
ENDBRANCH  30  31
BRANCH  30  46
ATOM     46  C24 UNK     0      -4.234  -1.925  -0.165  0.00  0.00    +0.000 C 
BRANCH  46  47
ATOM     47  C29 UNK     0      -4.082  -2.919  -1.291  0.00  0.00    +0.000 A 
ATOM     48  C37 UNK     0      -3.831  -4.274  -1.015  0.00  0.00    +0.000 A 
ATOM     49  C45 UNK     0      -3.688  -5.193  -2.058  0.00  0.00    +0.000 A 
ATOM     50  C47 UNK     0      -3.789  -4.766  -3.385  0.00  0.00    +0.000 A 
ATOM     51  C46 UNK     0      -4.039  -3.420  -3.669  0.00  0.00    +0.000 A 
ATOM     52  C38 UNK     0      -4.185  -2.498  -2.627  0.00  0.00    +0.000 A 
ENDBRANCH  46  47
ENDBRANCH  30  46
ENDBRANCH  27  30
ENDBRANCH   1  26
BRANCH   1  53
ATOM     53  C26 UNK     0       0.414  -2.659   2.366  0.00  0.00    +0.000 C 
BRANCH  53  54
ATOM     54  C28 UNK     0       0.847  -4.120   2.644  0.00  0.00    +0.000 C 
ATOM     55  C33 UNK     0       2.311  -4.380   2.274  0.00  0.00    +0.000 C 
ATOM     56  C34 UNK     0      -0.085  -5.134   1.964  0.00  0.00    +0.000 C 
ENDBRANCH  53  54
ENDBRANCH   1  53
TORSDOF 20
