REMARK  Name = C:\Users\Maximilian\Desktop\Conformers\converted_pdb\conformers_pdb\TAK_242_conf_2.pdb
REMARK  25 active torsions:
REMARK  status: ('A' for Active; 'I' for Inactive)
REMARK    1  A    between atoms: C25_1  and  N10_2
REMARK    2  A    between atoms: C25_1  and  C27_26
REMARK    3  A    between atoms: C25_1  and  C26_53
REMARK    4  A    between atoms: C31_4  and  C30_6
REMARK    5  A    between atoms: C30_6  and  C32_7
REMARK    6  A    between atoms: C30_6  and  N11_15
REMARK    7  A    between atoms: C32_7  and  C35_8
REMARK    8  A    between atoms: C35_8  and  C44_9
REMARK    9  A    between atoms: C41_16  and  C36_19
REMARK   10  A    between atoms: C36_19  and  N12_20
REMARK   11  A    between atoms: N9_27  and  C21_30
REMARK   12  A    between atoms: C21_30  and  C24_31
REMARK   13  A    between atoms: C21_30  and  C20_38
REMARK   14  A    between atoms: C24_31  and  C29_32
REMARK   15  A    between atoms: N8_39  and  C15_42
REMARK   16  A    between atoms: C15_42  and  C18_43
REMARK   17  A    between atoms: C15_42  and  C16_47
REMARK   18  A    between atoms: C18_43  and  C19_44
REMARK   19  A    between atoms: C19_44  and  C23_45
REMARK   20  A    between atoms: C19_44  and  C22_46
REMARK   21  A    between atoms: C16_47  and  C13_49
REMARK   22  A    between atoms: C13_49  and  C17_52
REMARK   23  A    between atoms: C26_53  and  C28_54
REMARK   24  A    between atoms: C28_54  and  C33_55
REMARK   25  A    between atoms: C28_54  and  C34_56
REMARK                            x       y       z     vdW  Elec       q    Type
REMARK                         _______ _______ _______ _____ _____    ______ ____
ROOT
ATOM      1  C25 UNK     0       0.695   0.939  -1.014  0.00  0.00    +0.000 C 
ENDROOT
BRANCH   1   2
ATOM      2  N10 UNK     0       1.863   0.179  -1.469  0.00  0.00    +0.000 N 
ATOM      3  H77 UNK     0       1.941  -0.104  -2.471  0.00  0.00    +0.000 HD
ATOM      4  C31 UNK     0       2.947  -0.143  -0.586  0.00  0.00    +0.000 C 
ATOM      5  O6  UNK     0       2.804  -0.028   0.661  0.00  0.00    +0.000 OA
BRANCH   4   6
ATOM      6  C30 UNK     0       4.252  -0.651  -1.148  0.00  0.00    +0.000 C 
BRANCH   6   7
ATOM      7  N11 UNK     0       5.377  -0.082  -0.397  0.00  0.00    +0.000 N 
ATOM      8  C41 UNK     0       5.646   1.327  -0.367  0.00  0.00    +0.000 C 
ATOM      9  O7  UNK     0       4.947   2.123  -1.046  0.00  0.00    +0.000 OA
ATOM     10  H87 UNK     0       6.012  -0.713   0.141  0.00  0.00    +0.000 HD
BRANCH   8  11
ATOM     11  C36 UNK     0       6.733   1.863   0.516  0.00  0.00    +0.000 C 
BRANCH  11  12
ATOM     12  N12 UNK     0       6.448   1.528   1.929  0.00  0.00    +0.000 NA
ATOM     13  C39 UNK     0       7.672   1.516   2.754  0.00  0.00    +0.000 C 
ATOM     14  C42 UNK     0       8.215   2.944   3.004  0.00  0.00    +0.000 C 
ATOM     15  O5  UNK     0       7.277   3.961   2.697  0.00  0.00    +0.000 OA
ATOM     16  C43 UNK     0       6.017   3.634   3.239  0.00  0.00    +0.000 C 
ATOM     17  C40 UNK     0       5.413   2.409   2.523  0.00  0.00    +0.000 C 
ENDBRANCH  11  12
ENDBRANCH   8  11
ENDBRANCH   6   7
BRANCH   6  18
ATOM     18  C32 UNK     0       4.305  -2.190  -1.098  0.00  0.00    +0.000 C 
BRANCH  18  19
ATOM     19  C35 UNK     0       3.270  -2.847  -2.023  0.00  0.00    +0.000 C 
BRANCH  19  20
ATOM     20  C44 UNK     0       3.430  -4.342  -2.010  0.00  0.00    +0.000 A 
ATOM     21  C49 UNK     0       4.299  -4.973  -2.917  0.00  0.00    +0.000 A 
ATOM     22  C51 UNK     0       4.475  -6.360  -2.873  0.00  0.00    +0.000 A 
ATOM     23  C52 UNK     0       3.793  -7.124  -1.923  0.00  0.00    +0.000 A 
ATOM     24  C50 UNK     0       2.936  -6.502  -1.010  0.00  0.00    +0.000 A 
ATOM     25  C48 UNK     0       2.759  -5.115  -1.048  0.00  0.00    +0.000 A 
ENDBRANCH  19  20
ENDBRANCH  18  19
ENDBRANCH   6  18
ENDBRANCH   4   6
ENDBRANCH   1   2
BRANCH   1  26
ATOM     26  C27 UNK     0      -0.184   0.061  -0.163  0.00  0.00    +0.000 C 
ATOM     27  N9  UNK     0      -0.828   0.612   0.995  0.00  0.00    +0.000 N 
ATOM     28  H73 UNK     0      -0.598   1.595   1.263  0.00  0.00    +0.000 HD
ATOM     29  O4  UNK     0      -0.406  -1.130  -0.511  0.00  0.00    +0.000 OA
BRANCH  27  30
ATOM     30  C21 UNK     0      -1.796  -0.145   1.795  0.00  0.00    +0.000 C 
BRANCH  30  31
ATOM     31  C20 UNK     0      -3.010  -0.470   0.964  0.00  0.00    +0.000 C 
ATOM     32  N8  UNK     0      -3.646   0.547   0.176  0.00  0.00    +0.000 N 
ATOM     33  H62 UNK     0      -3.200   1.493   0.129  0.00  0.00    +0.000 HD
ATOM     34  O3  UNK     0      -3.487  -1.637   1.001  0.00  0.00    +0.000 OA
BRANCH  32  35
ATOM     35  C15 UNK     0      -4.868   0.287  -0.588  0.00  0.00    +0.000 C 
BRANCH  35  36
ATOM     36  C16 UNK     0      -5.567   1.597  -0.872  0.00  0.00    +0.000 C 
ATOM     37  O2  UNK     0      -5.114   2.361  -1.712  0.00  0.00    +0.000 OA
BRANCH  36  38
ATOM     38  C13 UNK     0      -6.803   1.979  -0.102  0.00  0.00    +0.000 C 
ATOM     39  O1  UNK     0      -7.056   3.366  -0.127  0.00  0.00    +0.000 OA
ATOM     40  C14 UNK     0      -6.625   2.823   1.105  0.00  0.00    +0.000 C 
ATOM     41  C17 UNK     0      -8.080   1.155  -0.234  0.00  0.00    +0.000 C 
ENDBRANCH  36  38
ENDBRANCH  35  36
BRANCH  35  42
ATOM     42  C18 UNK     0      -4.521  -0.478  -1.888  0.00  0.00    +0.000 C 
BRANCH  42  43
ATOM     43  C19 UNK     0      -5.754  -0.882  -2.737  0.00  0.00    +0.000 C 
ATOM     44  C23 UNK     0      -6.572  -1.991  -2.059  0.00  0.00    +0.000 C 
ATOM     45  C22 UNK     0      -5.307  -1.348  -4.129  0.00  0.00    +0.000 C 
ENDBRANCH  42  43
ENDBRANCH  35  42
ENDBRANCH  32  35
ENDBRANCH  30  31
BRANCH  30  46
ATOM     46  C24 UNK     0      -2.197   0.661   3.047  0.00  0.00    +0.000 C 
BRANCH  46  47
ATOM     47  C29 UNK     0      -3.117  -0.123   3.950  0.00  0.00    +0.000 A 
ATOM     48  C37 UNK     0      -2.588  -1.042   4.869  0.00  0.00    +0.000 A 
ATOM     49  C45 UNK     0      -3.440  -1.788   5.689  0.00  0.00    +0.000 A 
ATOM     50  C47 UNK     0      -4.823  -1.629   5.591  0.00  0.00    +0.000 A 
ATOM     51  C46 UNK     0      -5.359  -0.731   4.664  0.00  0.00    +0.000 A 
ATOM     52  C38 UNK     0      -4.511   0.021   3.845  0.00  0.00    +0.000 A 
ENDBRANCH  46  47
ENDBRANCH  30  46
ENDBRANCH  27  30
ENDBRANCH   1  26
BRANCH   1  53
ATOM     53  C26 UNK     0      -0.127   1.485  -2.208  0.00  0.00    +0.000 C 
BRANCH  53  54
ATOM     54  C28 UNK     0       0.433   2.767  -2.876  0.00  0.00    +0.000 C 
ATOM     55  C33 UNK     0       1.843   2.584  -3.450  0.00  0.00    +0.000 C 
ATOM     56  C34 UNK     0       0.379   3.986  -1.944  0.00  0.00    +0.000 C 
ENDBRANCH  53  54
ENDBRANCH   1  53
TORSDOF 20
