REMARK  Name = C:\Users\Maximilian\Desktop\Conformers\converted_pdb\conformers_pdb\TAK_242_conf_79.pdb
REMARK  25 active torsions:
REMARK  status: ('A' for Active; 'I' for Inactive)
REMARK    1  A    between atoms: C25_1  and  N10_2
REMARK    2  A    between atoms: C25_1  and  C27_26
REMARK    3  A    between atoms: C25_1  and  C26_53
REMARK    4  A    between atoms: C31_4  and  C30_6
REMARK    5  A    between atoms: C30_6  and  C32_7
REMARK    6  A    between atoms: C30_6  and  N11_15
REMARK    7  A    between atoms: C32_7  and  C35_8
REMARK    8  A    between atoms: C35_8  and  C44_9
REMARK    9  A    between atoms: C41_16  and  C36_19
REMARK   10  A    between atoms: C36_19  and  N12_20
REMARK   11  A    between atoms: N9_27  and  C21_30
REMARK   12  A    between atoms: C21_30  and  C24_31
REMARK   13  A    between atoms: C21_30  and  C20_38
REMARK   14  A    between atoms: C24_31  and  C29_32
REMARK   15  A    between atoms: N8_39  and  C15_42
REMARK   16  A    between atoms: C15_42  and  C18_43
REMARK   17  A    between atoms: C15_42  and  C16_47
REMARK   18  A    between atoms: C18_43  and  C19_44
REMARK   19  A    between atoms: C19_44  and  C23_45
REMARK   20  A    between atoms: C19_44  and  C22_46
REMARK   21  A    between atoms: C16_47  and  C13_49
REMARK   22  A    between atoms: C13_49  and  C17_52
REMARK   23  A    between atoms: C26_53  and  C28_54
REMARK   24  A    between atoms: C28_54  and  C33_55
REMARK   25  A    between atoms: C28_54  and  C34_56
REMARK                            x       y       z     vdW  Elec       q    Type
REMARK                         _______ _______ _______ _____ _____    ______ ____
ROOT
ATOM      1  C25 UNK     0       0.835  -1.925   1.445  0.00  0.00    +0.000 C 
ENDROOT
BRANCH   1   2
ATOM      2  N10 UNK     0       2.109  -1.298   1.816  0.00  0.00    +0.000 N 
ATOM      3  H77 UNK     0       2.503  -1.474   2.770  0.00  0.00    +0.000 HD
ATOM      4  C31 UNK     0       2.820  -0.419   0.928  0.00  0.00    +0.000 C 
ATOM      5  O6  UNK     0       2.352  -0.161  -0.212  0.00  0.00    +0.000 OA
BRANCH   4   6
ATOM      6  C30 UNK     0       4.099   0.241   1.388  0.00  0.00    +0.000 C 
BRANCH   6   7
ATOM      7  N11 UNK     0       5.215  -0.073   0.485  0.00  0.00    +0.000 N 
ATOM      8  C41 UNK     0       5.399   0.465  -0.836  0.00  0.00    +0.000 C 
ATOM      9  O7  UNK     0       4.502   1.162  -1.383  0.00  0.00    +0.000 OA
ATOM     10  H87 UNK     0       5.955  -0.713   0.853  0.00  0.00    +0.000 HD
BRANCH   8  11
ATOM     11  C36 UNK     0       6.692   0.229  -1.557  0.00  0.00    +0.000 C 
BRANCH  11  12
ATOM     12  N12 UNK     0       6.964  -1.219  -1.640  0.00  0.00    +0.000 NA
ATOM     13  C39 UNK     0       8.407  -1.479  -1.786  0.00  0.00    +0.000 C 
ATOM     14  C42 UNK     0       8.647  -2.994  -1.894  0.00  0.00    +0.000 C 
ATOM     15  O5  UNK     0       7.940  -3.542  -2.994  0.00  0.00    +0.000 OA
ATOM     16  C43 UNK     0       6.551  -3.333  -2.822  0.00  0.00    +0.000 C 
ATOM     17  C40 UNK     0       6.226  -1.835  -2.759  0.00  0.00    +0.000 C 
ENDBRANCH  11  12
ENDBRANCH   8  11
ENDBRANCH   6   7
BRANCH   6  18
ATOM     18  C32 UNK     0       3.906   1.757   1.590  0.00  0.00    +0.000 C 
BRANCH  18  19
ATOM     19  C35 UNK     0       5.189   2.434   2.090  0.00  0.00    +0.000 C 
BRANCH  19  20
ATOM     20  C44 UNK     0       4.908   3.860   2.478  0.00  0.00    +0.000 A 
ATOM     21  C49 UNK     0       4.490   4.165   3.784  0.00  0.00    +0.000 A 
ATOM     22  C51 UNK     0       4.189   5.484   4.136  0.00  0.00    +0.000 A 
ATOM     23  C52 UNK     0       4.314   6.507   3.193  0.00  0.00    +0.000 A 
ATOM     24  C50 UNK     0       4.716   6.209   1.887  0.00  0.00    +0.000 A 
ATOM     25  C48 UNK     0       5.007   4.890   1.528  0.00  0.00    +0.000 A 
ENDBRANCH  19  20
ENDBRANCH  18  19
ENDBRANCH   6  18
ENDBRANCH   4   6
ENDBRANCH   1   2
BRANCH   1  26
ATOM     26  C27 UNK     0      -0.241  -0.872   1.424  0.00  0.00    +0.000 C 
ATOM     27  N9  UNK     0      -0.957  -0.595   0.209  0.00  0.00    +0.000 N 
ATOM     28  H73 UNK     0      -0.712  -1.142  -0.646  0.00  0.00    +0.000 HD
ATOM     29  O4  UNK     0      -0.507  -0.236   2.483  0.00  0.00    +0.000 OA
BRANCH  27  30
ATOM     30  C21 UNK     0      -2.065   0.368   0.131  0.00  0.00    +0.000 C 
BRANCH  30  31
ATOM     31  C20 UNK     0      -3.360  -0.334  -0.204  0.00  0.00    +0.000 C 
ATOM     32  N8  UNK     0      -4.609   0.341   0.008  0.00  0.00    +0.000 N 
ATOM     33  H62 UNK     0      -4.585   1.337   0.320  0.00  0.00    +0.000 HD
ATOM     34  O3  UNK     0      -3.341  -1.487  -0.709  0.00  0.00    +0.000 OA
BRANCH  32  35
ATOM     35  C15 UNK     0      -5.916  -0.298  -0.189  0.00  0.00    +0.000 C 
BRANCH  35  36
ATOM     36  C16 UNK     0      -6.653  -0.386   1.133  0.00  0.00    +0.000 C 
ATOM     37  O2  UNK     0      -7.364  -1.354   1.354  0.00  0.00    +0.000 OA
BRANCH  36  38
ATOM     38  C13 UNK     0      -6.490   0.653   2.211  0.00  0.00    +0.000 C 
ATOM     39  O1  UNK     0      -7.725   1.083   2.731  0.00  0.00    +0.000 OA
ATOM     40  C14 UNK     0      -7.002   2.024   1.969  0.00  0.00    +0.000 C 
ATOM     41  C17 UNK     0      -5.441   0.441   3.300  0.00  0.00    +0.000 C 
ENDBRANCH  36  38
ENDBRANCH  35  36
BRANCH  35  42
ATOM     42  C18 UNK     0      -6.704   0.479  -1.268  0.00  0.00    +0.000 C 
BRANCH  42  43
ATOM     43  C19 UNK     0      -8.151  -0.018  -1.513  0.00  0.00    +0.000 C 
ATOM     44  C23 UNK     0      -8.178  -1.451  -2.070  0.00  0.00    +0.000 C 
ATOM     45  C22 UNK     0      -8.864   0.930  -2.485  0.00  0.00    +0.000 C 
ENDBRANCH  42  43
ENDBRANCH  35  42
ENDBRANCH  32  35
ENDBRANCH  30  31
BRANCH  30  46
ATOM     46  C24 UNK     0      -1.734   1.493  -0.871  0.00  0.00    +0.000 C 
BRANCH  46  47
ATOM     47  C29 UNK     0      -1.674   1.023  -2.305  0.00  0.00    +0.000 A 
ATOM     48  C37 UNK     0      -0.464   0.571  -2.859  0.00  0.00    +0.000 A 
ATOM     49  C45 UNK     0      -0.424   0.098  -4.174  0.00  0.00    +0.000 A 
ATOM     50  C47 UNK     0      -1.586   0.089  -4.951  0.00  0.00    +0.000 A 
ATOM     51  C46 UNK     0      -2.790   0.552  -4.414  0.00  0.00    +0.000 A 
ATOM     52  C38 UNK     0      -2.837   1.013  -3.095  0.00  0.00    +0.000 A 
ENDBRANCH  46  47
ENDBRANCH  30  46
ENDBRANCH  27  30
ENDBRANCH   1  26
BRANCH   1  53
ATOM     53  C26 UNK     0       0.503  -3.066   2.439  0.00  0.00    +0.000 C 
BRANCH  53  54
ATOM     54  C28 UNK     0      -0.723  -3.958   2.103  0.00  0.00    +0.000 C 
ATOM     55  C33 UNK     0      -0.688  -4.525   0.679  0.00  0.00    +0.000 C 
ATOM     56  C34 UNK     0      -2.070  -3.281   2.390  0.00  0.00    +0.000 C 
ENDBRANCH  53  54
ENDBRANCH   1  53
TORSDOF 20
