REMARK  Name = C:\Users\Maximilian\Desktop\Conformers\converted_pdb\conformers_pdb\TAK_242_conf_93.pdb
REMARK  25 active torsions:
REMARK  status: ('A' for Active; 'I' for Inactive)
REMARK    1  A    between atoms: C25_1  and  N10_2
REMARK    2  A    between atoms: C25_1  and  C27_26
REMARK    3  A    between atoms: C25_1  and  C26_53
REMARK    4  A    between atoms: C31_4  and  C30_6
REMARK    5  A    between atoms: C30_6  and  C32_7
REMARK    6  A    between atoms: C30_6  and  N11_15
REMARK    7  A    between atoms: C32_7  and  C35_8
REMARK    8  A    between atoms: C35_8  and  C44_9
REMARK    9  A    between atoms: C41_16  and  C36_19
REMARK   10  A    between atoms: C36_19  and  N12_20
REMARK   11  A    between atoms: N9_27  and  C21_30
REMARK   12  A    between atoms: C21_30  and  C24_31
REMARK   13  A    between atoms: C21_30  and  C20_38
REMARK   14  A    between atoms: C24_31  and  C29_32
REMARK   15  A    between atoms: N8_39  and  C15_42
REMARK   16  A    between atoms: C15_42  and  C18_43
REMARK   17  A    between atoms: C15_42  and  C16_47
REMARK   18  A    between atoms: C18_43  and  C19_44
REMARK   19  A    between atoms: C19_44  and  C23_45
REMARK   20  A    between atoms: C19_44  and  C22_46
REMARK   21  A    between atoms: C16_47  and  C13_49
REMARK   22  A    between atoms: C13_49  and  C17_52
REMARK   23  A    between atoms: C26_53  and  C28_54
REMARK   24  A    between atoms: C28_54  and  C33_55
REMARK   25  A    between atoms: C28_54  and  C34_56
REMARK                            x       y       z     vdW  Elec       q    Type
REMARK                         _______ _______ _______ _____ _____    ______ ____
ROOT
ATOM      1  C25 UNK     0      -1.231  -2.612  -2.429  0.00  0.00    +0.000 C 
ENDROOT
BRANCH   1   2
ATOM      2  N10 UNK     0      -2.128  -1.673  -1.749  0.00  0.00    +0.000 N 
ATOM      3  H77 UNK     0      -2.406  -0.792  -2.226  0.00  0.00    +0.000 HD
ATOM      4  C31 UNK     0      -2.656  -1.949  -0.442  0.00  0.00    +0.000 C 
ATOM      5  O6  UNK     0      -2.235  -2.946   0.211  0.00  0.00    +0.000 OA
BRANCH   4   6
ATOM      6  C30 UNK     0      -3.697  -1.056   0.179  0.00  0.00    +0.000 C 
BRANCH   6   7
ATOM      7  N11 UNK     0      -3.102   0.249   0.508  0.00  0.00    +0.000 N 
ATOM      8  C41 UNK     0      -3.207   1.469  -0.255  0.00  0.00    +0.000 C 
ATOM      9  O7  UNK     0      -3.580   1.439  -1.457  0.00  0.00    +0.000 OA
ATOM     10  H87 UNK     0      -2.478   0.252   1.348  0.00  0.00    +0.000 HD
BRANCH   8  11
ATOM     11  C36 UNK     0      -2.872   2.815   0.340  0.00  0.00    +0.000 C 
BRANCH  11  12
ATOM     12  N12 UNK     0      -2.379   2.705   1.734  0.00  0.00    +0.000 NA
ATOM     13  C39 UNK     0      -1.527   3.853   2.106  0.00  0.00    +0.000 C 
ATOM     14  C42 UNK     0      -2.355   5.154   2.279  0.00  0.00    +0.000 C 
ATOM     15  O5  UNK     0      -3.741   4.920   2.470  0.00  0.00    +0.000 OA
ATOM     16  C43 UNK     0      -3.935   3.844   3.362  0.00  0.00    +0.000 C 
ATOM     17  C40 UNK     0      -3.484   2.519   2.714  0.00  0.00    +0.000 C 
ENDBRANCH  11  12
ENDBRANCH   8  11
ENDBRANCH   6   7
BRANCH   6  18
ATOM     18  C32 UNK     0      -4.982  -0.962  -0.685  0.00  0.00    +0.000 C 
BRANCH  18  19
ATOM     19  C35 UNK     0      -5.749  -2.294  -0.794  0.00  0.00    +0.000 C 
BRANCH  19  20
ATOM     20  C44 UNK     0      -6.381  -2.700   0.513  0.00  0.00    +0.000 A 
ATOM     21  C49 UNK     0      -7.562  -2.075   0.950  0.00  0.00    +0.000 A 
ATOM     22  C51 UNK     0      -8.145  -2.442   2.165  0.00  0.00    +0.000 A 
ATOM     23  C52 UNK     0      -7.549  -3.428   2.958  0.00  0.00    +0.000 A 
ATOM     24  C50 UNK     0      -6.370  -4.051   2.535  0.00  0.00    +0.000 A 
ATOM     25  C48 UNK     0      -5.786  -3.688   1.316  0.00  0.00    +0.000 A 
ENDBRANCH  19  20
ENDBRANCH  18  19
ENDBRANCH   6  18
ENDBRANCH   4   6
ENDBRANCH   1   2
BRANCH   1  26
ATOM     26  C27 UNK     0       0.162  -2.506  -1.861  0.00  0.00    +0.000 C 
ATOM     27  N9  UNK     0       0.778  -1.224  -1.665  0.00  0.00    +0.000 N 
ATOM     28  H73 UNK     0       0.229  -0.370  -1.905  0.00  0.00    +0.000 HD
ATOM     29  O4  UNK     0       0.799  -3.563  -1.592  0.00  0.00    +0.000 OA
BRANCH  27  30
ATOM     30  C21 UNK     0       2.198  -1.100  -1.316  0.00  0.00    +0.000 C 
BRANCH  30  31
ATOM     31  C20 UNK     0       2.466   0.230  -0.645  0.00  0.00    +0.000 C 
ATOM     32  N8  UNK     0       3.176   0.275   0.603  0.00  0.00    +0.000 N 
ATOM     33  H62 UNK     0       3.603  -0.613   0.949  0.00  0.00    +0.000 HD
ATOM     34  O3  UNK     0       2.090   1.297  -1.198  0.00  0.00    +0.000 OA
BRANCH  32  35
ATOM     35  C15 UNK     0       3.377   1.521   1.361  0.00  0.00    +0.000 C 
BRANCH  35  36
ATOM     36  C16 UNK     0       3.634   1.257   2.842  0.00  0.00    +0.000 C 
ATOM     37  O2  UNK     0       3.767   0.118   3.255  0.00  0.00    +0.000 OA
BRANCH  36  38
ATOM     38  C13 UNK     0       3.720   2.391   3.832  0.00  0.00    +0.000 C 
ATOM     39  O1  UNK     0       2.797   2.228   4.881  0.00  0.00    +0.000 OA
ATOM     40  C14 UNK     0       2.556   3.295   3.989  0.00  0.00    +0.000 C 
ATOM     41  C17 UNK     0       5.084   2.827   4.361  0.00  0.00    +0.000 C 
ENDBRANCH  36  38
ENDBRANCH  35  36
BRANCH  35  42
ATOM     42  C18 UNK     0       4.483   2.396   0.718  0.00  0.00    +0.000 C 
BRANCH  42  43
ATOM     43  C19 UNK     0       5.745   1.641   0.232  0.00  0.00    +0.000 C 
ATOM     44  C23 UNK     0       6.459   0.879   1.353  0.00  0.00    +0.000 C 
ATOM     45  C22 UNK     0       6.723   2.624  -0.423  0.00  0.00    +0.000 C 
ENDBRANCH  42  43
ENDBRANCH  35  42
ENDBRANCH  32  35
ENDBRANCH  30  31
BRANCH  30  46
ATOM     46  C24 UNK     0       3.056  -1.279  -2.586  0.00  0.00    +0.000 C 
BRANCH  46  47
ATOM     47  C29 UNK     0       4.544  -1.272  -2.305  0.00  0.00    +0.000 A 
ATOM     48  C37 UNK     0       5.113  -2.223  -1.436  0.00  0.00    +0.000 A 
ATOM     49  C45 UNK     0       6.490  -2.217  -1.188  0.00  0.00    +0.000 A 
ATOM     50  C47 UNK     0       7.315  -1.283  -1.822  0.00  0.00    +0.000 A 
ATOM     51  C46 UNK     0       6.763  -0.354  -2.707  0.00  0.00    +0.000 A 
ATOM     52  C38 UNK     0       5.384  -0.345  -2.949  0.00  0.00    +0.000 A 
ENDBRANCH  46  47
ENDBRANCH  30  46
ENDBRANCH  27  30
ENDBRANCH   1  26
BRANCH   1  53
ATOM     53  C26 UNK     0      -1.194  -2.342  -3.946  0.00  0.00    +0.000 C 
BRANCH  53  54
ATOM     54  C28 UNK     0      -2.548  -2.587  -4.650  0.00  0.00    +0.000 C 
ATOM     55  C33 UNK     0      -2.910  -4.082  -4.693  0.00  0.00    +0.000 C 
ATOM     56  C34 UNK     0      -2.497  -2.023  -6.075  0.00  0.00    +0.000 C 
ENDBRANCH  53  54
ENDBRANCH   1  53
TORSDOF 20
