REMARK  Name = C:\Users\Maximilian\Desktop\Conformers\converted_pdb\conformers_pdb\TAK_242_conf_42.pdb
REMARK  25 active torsions:
REMARK  status: ('A' for Active; 'I' for Inactive)
REMARK    1  A    between atoms: C25_1  and  N10_2
REMARK    2  A    between atoms: C25_1  and  C27_26
REMARK    3  A    between atoms: C25_1  and  C26_53
REMARK    4  A    between atoms: C31_4  and  C30_6
REMARK    5  A    between atoms: C30_6  and  C32_7
REMARK    6  A    between atoms: C30_6  and  N11_15
REMARK    7  A    between atoms: C32_7  and  C35_8
REMARK    8  A    between atoms: C35_8  and  C44_9
REMARK    9  A    between atoms: C41_16  and  C36_19
REMARK   10  A    between atoms: C36_19  and  N12_20
REMARK   11  A    between atoms: N9_27  and  C21_30
REMARK   12  A    between atoms: C21_30  and  C24_31
REMARK   13  A    between atoms: C21_30  and  C20_38
REMARK   14  A    between atoms: C24_31  and  C29_32
REMARK   15  A    between atoms: N8_39  and  C15_42
REMARK   16  A    between atoms: C15_42  and  C18_43
REMARK   17  A    between atoms: C15_42  and  C16_47
REMARK   18  A    between atoms: C18_43  and  C19_44
REMARK   19  A    between atoms: C19_44  and  C23_45
REMARK   20  A    between atoms: C19_44  and  C22_46
REMARK   21  A    between atoms: C16_47  and  C13_49
REMARK   22  A    between atoms: C13_49  and  C17_52
REMARK   23  A    between atoms: C26_53  and  C28_54
REMARK   24  A    between atoms: C28_54  and  C33_55
REMARK   25  A    between atoms: C28_54  and  C34_56
REMARK                            x       y       z     vdW  Elec       q    Type
REMARK                         _______ _______ _______ _____ _____    ______ ____
ROOT
ATOM      1  C25 UNK     0       0.323  -0.666  -2.283  0.00  0.00    +0.000 C 
ENDROOT
BRANCH   1   2
ATOM      2  N10 UNK     0      -0.670  -0.661  -1.201  0.00  0.00    +0.000 N 
ATOM      3  H77 UNK     0      -0.907  -1.580  -0.759  0.00  0.00    +0.000 HD
ATOM      4  C31 UNK     0      -1.464   0.484  -0.846  0.00  0.00    +0.000 C 
ATOM      5  O6  UNK     0      -1.075   1.643  -1.159  0.00  0.00    +0.000 OA
BRANCH   4   6
ATOM      6  C30 UNK     0      -2.739   0.297  -0.064  0.00  0.00    +0.000 C 
BRANCH   6   7
ATOM      7  N11 UNK     0      -2.461   0.473   1.363  0.00  0.00    +0.000 N 
ATOM      8  C41 UNK     0      -2.801  -0.524   2.344  0.00  0.00    +0.000 C 
ATOM      9  O7  UNK     0      -2.889  -1.738   2.015  0.00  0.00    +0.000 OA
ATOM     10  H87 UNK     0      -2.146   1.414   1.692  0.00  0.00    +0.000 HD
BRANCH   8  11
ATOM     11  C36 UNK     0      -3.057  -0.117   3.773  0.00  0.00    +0.000 C 
BRANCH  11  12
ATOM     12  N12 UNK     0      -4.491  -0.065   4.131  0.00  0.00    +0.000 NA
ATOM     13  C39 UNK     0      -5.291   0.755   3.200  0.00  0.00    +0.000 C 
ATOM     14  C42 UNK     0      -6.740   0.810   3.696  0.00  0.00    +0.000 C 
ATOM     15  O5  UNK     0      -7.291  -0.493   3.785  0.00  0.00    +0.000 OA
ATOM     16  C43 UNK     0      -6.554  -1.262   4.722  0.00  0.00    +0.000 C 
ATOM     17  C40 UNK     0      -5.089  -1.405   4.285  0.00  0.00    +0.000 C 
ENDBRANCH  11  12
ENDBRANCH   8  11
ENDBRANCH   6   7
BRANCH   6  18
ATOM     18  C32 UNK     0      -3.836   1.291  -0.503  0.00  0.00    +0.000 C 
BRANCH  18  19
ATOM     19  C35 UNK     0      -4.340   1.039  -1.932  0.00  0.00    +0.000 C 
BRANCH  19  20
ATOM     20  C44 UNK     0      -5.168  -0.217  -2.022  0.00  0.00    +0.000 A 
ATOM     21  C49 UNK     0      -6.487  -0.232  -1.534  0.00  0.00    +0.000 A 
ATOM     22  C51 UNK     0      -7.256  -1.398  -1.605  0.00  0.00    +0.000 A 
ATOM     23  C52 UNK     0      -6.719  -2.557  -2.173  0.00  0.00    +0.000 A 
ATOM     24  C50 UNK     0      -5.404  -2.556  -2.651  0.00  0.00    +0.000 A 
ATOM     25  C48 UNK     0      -4.627  -1.394  -2.566  0.00  0.00    +0.000 A 
ENDBRANCH  19  20
ENDBRANCH  18  19
ENDBRANCH   6  18
ENDBRANCH   4   6
ENDBRANCH   1   2
BRANCH   1  26
ATOM     26  C27 UNK     0       1.546   0.172  -1.952  0.00  0.00    +0.000 C 
ATOM     27  N9  UNK     0       1.717   0.797  -0.668  0.00  0.00    +0.000 N 
ATOM     28  H73 UNK     0       1.113   0.498   0.133  0.00  0.00    +0.000 HD
ATOM     29  O4  UNK     0       2.448   0.299  -2.824  0.00  0.00    +0.000 OA
BRANCH  27  30
ATOM     30  C21 UNK     0       2.834   1.708  -0.389  0.00  0.00    +0.000 C 
BRANCH  30  31
ATOM     31  C20 UNK     0       4.032   0.953   0.148  0.00  0.00    +0.000 C 
ATOM     32  N8  UNK     0       3.932  -0.424   0.554  0.00  0.00    +0.000 N 
ATOM     33  H62 UNK     0       3.009  -0.913   0.509  0.00  0.00    +0.000 HD
ATOM     34  O3  UNK     0       5.140   1.550   0.222  0.00  0.00    +0.000 OA
BRANCH  32  35
ATOM     35  C15 UNK     0       5.053  -1.163   1.145  0.00  0.00    +0.000 C 
BRANCH  35  36
ATOM     36  C16 UNK     0       4.919  -1.192   2.653  0.00  0.00    +0.000 C 
ATOM     37  O2  UNK     0       5.913  -1.396   3.329  0.00  0.00    +0.000 OA
BRANCH  36  38
ATOM     38  C13 UNK     0       3.608  -0.939   3.352  0.00  0.00    +0.000 C 
ATOM     39  O1  UNK     0       3.299  -1.978   4.253  0.00  0.00    +0.000 OA
ATOM     40  C14 UNK     0       2.472  -1.865   3.118  0.00  0.00    +0.000 C 
ATOM     41  C17 UNK     0       3.359   0.431   3.976  0.00  0.00    +0.000 C 
ENDBRANCH  36  38
ENDBRANCH  35  36
BRANCH  35  42
ATOM     42  C18 UNK     0       5.107  -2.604   0.585  0.00  0.00    +0.000 C 
BRANCH  42  43
ATOM     43  C19 UNK     0       5.732  -2.713  -0.826  0.00  0.00    +0.000 C 
ATOM     44  C23 UNK     0       4.901  -2.003  -1.903  0.00  0.00    +0.000 C 
ATOM     45  C22 UNK     0       5.914  -4.189  -1.203  0.00  0.00    +0.000 C 
ENDBRANCH  42  43
ENDBRANCH  35  42
ENDBRANCH  32  35
ENDBRANCH  30  31
BRANCH  30  46
ATOM     46  C24 UNK     0       2.369   2.805   0.590  0.00  0.00    +0.000 C 
BRANCH  46  47
ATOM     47  C29 UNK     0       3.304   3.991   0.608  0.00  0.00    +0.000 A 
ATOM     48  C37 UNK     0       4.212   4.163   1.668  0.00  0.00    +0.000 A 
ATOM     49  C45 UNK     0       5.094   5.249   1.667  0.00  0.00    +0.000 A 
ATOM     50  C47 UNK     0       5.084   6.160   0.609  0.00  0.00    +0.000 A 
ATOM     51  C46 UNK     0       4.193   5.988  -0.454  0.00  0.00    +0.000 A 
ATOM     52  C38 UNK     0       3.302   4.911  -0.457  0.00  0.00    +0.000 A 
ENDBRANCH  46  47
ENDBRANCH  30  46
ENDBRANCH  27  30
ENDBRANCH   1  26
BRANCH   1  53
ATOM     53  C26 UNK     0      -0.335  -0.210  -3.609  0.00  0.00    +0.000 C 
BRANCH  53  54
ATOM     54  C28 UNK     0       0.397  -0.732  -4.878  0.00  0.00    +0.000 C 
ATOM     55  C33 UNK     0       0.729   0.421  -5.837  0.00  0.00    +0.000 C 
ATOM     56  C34 UNK     0      -0.441  -1.793  -5.612  0.00  0.00    +0.000 C 
ENDBRANCH  53  54
ENDBRANCH   1  53
TORSDOF 20
