REMARK  Name = C:\Users\Maximilian\Desktop\Conformers\converted_pdb\conformers_pdb\TAK_242_conf_12.pdb
REMARK  25 active torsions:
REMARK  status: ('A' for Active; 'I' for Inactive)
REMARK    1  A    between atoms: C25_1  and  N10_2
REMARK    2  A    between atoms: C25_1  and  C27_26
REMARK    3  A    between atoms: C25_1  and  C26_53
REMARK    4  A    between atoms: C31_4  and  C30_6
REMARK    5  A    between atoms: C30_6  and  C32_7
REMARK    6  A    between atoms: C30_6  and  N11_15
REMARK    7  A    between atoms: C32_7  and  C35_8
REMARK    8  A    between atoms: C35_8  and  C44_9
REMARK    9  A    between atoms: C41_16  and  C36_19
REMARK   10  A    between atoms: C36_19  and  N12_20
REMARK   11  A    between atoms: N9_27  and  C21_30
REMARK   12  A    between atoms: C21_30  and  C24_31
REMARK   13  A    between atoms: C21_30  and  C20_38
REMARK   14  A    between atoms: C24_31  and  C29_32
REMARK   15  A    between atoms: N8_39  and  C15_42
REMARK   16  A    between atoms: C15_42  and  C18_43
REMARK   17  A    between atoms: C15_42  and  C16_47
REMARK   18  A    between atoms: C18_43  and  C19_44
REMARK   19  A    between atoms: C19_44  and  C23_45
REMARK   20  A    between atoms: C19_44  and  C22_46
REMARK   21  A    between atoms: C16_47  and  C13_49
REMARK   22  A    between atoms: C13_49  and  C17_52
REMARK   23  A    between atoms: C26_53  and  C28_54
REMARK   24  A    between atoms: C28_54  and  C33_55
REMARK   25  A    between atoms: C28_54  and  C34_56
REMARK                            x       y       z     vdW  Elec       q    Type
REMARK                         _______ _______ _______ _____ _____    ______ ____
ROOT
ATOM      1  C25 UNK     0       0.382   0.865   1.806  0.00  0.00    +0.000 C 
ENDROOT
BRANCH   1   2
ATOM      2  N10 UNK     0       1.651   1.478   1.403  0.00  0.00    +0.000 N 
ATOM      3  H77 UNK     0       1.767   2.510   1.529  0.00  0.00    +0.000 HD
ATOM      4  C31 UNK     0       2.638   0.772   0.638  0.00  0.00    +0.000 C 
ATOM      5  O6  UNK     0       2.497  -0.461   0.417  0.00  0.00    +0.000 OA
BRANCH   4   6
ATOM      6  C30 UNK     0       3.809   1.533   0.061  0.00  0.00    +0.000 C 
BRANCH   6   7
ATOM      7  N11 UNK     0       5.001   0.682  -0.080  0.00  0.00    +0.000 N 
ATOM      8  C41 UNK     0       5.145  -0.408  -1.012  0.00  0.00    +0.000 C 
ATOM      9  O7  UNK     0       4.162  -0.802  -1.695  0.00  0.00    +0.000 OA
ATOM     10  H87 UNK     0       5.814   0.925   0.529  0.00  0.00    +0.000 HD
BRANCH   8  11
ATOM     11  C36 UNK     0       6.488  -1.047  -1.247  0.00  0.00    +0.000 C 
BRANCH  11  12
ATOM     12  N12 UNK     0       7.345  -0.975  -0.047  0.00  0.00    +0.000 NA
ATOM     13  C39 UNK     0       8.758  -1.191  -0.406  0.00  0.00    +0.000 C 
ATOM     14  C42 UNK     0       9.626  -1.146   0.857  0.00  0.00    +0.000 C 
ATOM     15  O5  UNK     0       9.210  -2.129   1.785  0.00  0.00    +0.000 OA
ATOM     16  C43 UNK     0       7.870  -1.890   2.173  0.00  0.00    +0.000 C 
ATOM     17  C40 UNK     0       6.932  -1.970   0.962  0.00  0.00    +0.000 C 
ENDBRANCH  11  12
ENDBRANCH   8  11
ENDBRANCH   6   7
BRANCH   6  18
ATOM     18  C32 UNK     0       3.426   2.237  -1.262  0.00  0.00    +0.000 C 
BRANCH  18  19
ATOM     19  C35 UNK     0       4.382   3.384  -1.641  0.00  0.00    +0.000 C 
BRANCH  19  20
ATOM     20  C44 UNK     0       5.750   2.898  -2.053  0.00  0.00    +0.000 A 
ATOM     21  C49 UNK     0       6.840   3.006  -1.172  0.00  0.00    +0.000 A 
ATOM     22  C51 UNK     0       8.105   2.549  -1.556  0.00  0.00    +0.000 A 
ATOM     23  C52 UNK     0       8.292   1.987  -2.821  0.00  0.00    +0.000 A 
ATOM     24  C50 UNK     0       7.215   1.877  -3.704  0.00  0.00    +0.000 A 
ATOM     25  C48 UNK     0       5.946   2.327  -3.322  0.00  0.00    +0.000 A 
ENDBRANCH  19  20
ENDBRANCH  18  19
ENDBRANCH   6  18
ENDBRANCH   4   6
ENDBRANCH   1   2
BRANCH   1  26
ATOM     26  C27 UNK     0      -0.592   0.937   0.658  0.00  0.00    +0.000 C 
ATOM     27  N9  UNK     0      -1.384  -0.210   0.310  0.00  0.00    +0.000 N 
ATOM     28  H73 UNK     0      -1.355  -1.041   0.943  0.00  0.00    +0.000 HD
ATOM     29  O4  UNK     0      -0.728   2.021   0.026  0.00  0.00    +0.000 OA
BRANCH  27  30
ATOM     30  C21 UNK     0      -2.312  -0.224  -0.828  0.00  0.00    +0.000 C 
BRANCH  30  31
ATOM     31  C20 UNK     0      -3.743  -0.217  -0.353  0.00  0.00    +0.000 C 
ATOM     32  N8  UNK     0      -4.789   0.202  -1.242  0.00  0.00    +0.000 N 
ATOM     33  H62 UNK     0      -4.536   0.414  -2.236  0.00  0.00    +0.000 HD
ATOM     34  O3  UNK     0      -4.022  -0.609   0.813  0.00  0.00    +0.000 OA
BRANCH  32  35
ATOM     35  C15 UNK     0      -6.196   0.255  -0.835  0.00  0.00    +0.000 C 
BRANCH  35  36
ATOM     36  C16 UNK     0      -6.901   1.309  -1.664  0.00  0.00    +0.000 C 
ATOM     37  O2  UNK     0      -7.275   1.047  -2.798  0.00  0.00    +0.000 OA
BRANCH  36  38
ATOM     38  C13 UNK     0      -7.053   2.710  -1.135  0.00  0.00    +0.000 C 
ATOM     39  O1  UNK     0      -7.337   3.653  -2.142  0.00  0.00    +0.000 OA
ATOM     40  C14 UNK     0      -6.048   3.707  -1.568  0.00  0.00    +0.000 C 
ATOM     41  C17 UNK     0      -7.830   2.978   0.153  0.00  0.00    +0.000 C 
ENDBRANCH  36  38
ENDBRANCH  35  36
BRANCH  35  42
ATOM     42  C18 UNK     0      -6.823  -1.156  -0.982  0.00  0.00    +0.000 C 
BRANCH  42  43
ATOM     43  C19 UNK     0      -8.236  -1.370  -0.380  0.00  0.00    +0.000 C 
ATOM     44  C23 UNK     0      -9.351  -0.714  -1.202  0.00  0.00    +0.000 C 
ATOM     45  C22 UNK     0      -8.328  -0.969   1.096  0.00  0.00    +0.000 C 
ENDBRANCH  42  43
ENDBRANCH  35  42
ENDBRANCH  32  35
ENDBRANCH  30  31
BRANCH  30  46
ATOM     46  C24 UNK     0      -2.018  -1.418  -1.759  0.00  0.00    +0.000 C 
BRANCH  46  47
ATOM     47  C29 UNK     0      -2.285  -2.759  -1.119  0.00  0.00    +0.000 A 
ATOM     48  C37 UNK     0      -3.553  -3.355  -1.227  0.00  0.00    +0.000 A 
ATOM     49  C45 UNK     0      -3.807  -4.587  -0.619  0.00  0.00    +0.000 A 
ATOM     50  C47 UNK     0      -2.793  -5.238   0.090  0.00  0.00    +0.000 A 
ATOM     51  C46 UNK     0      -1.526  -4.656   0.196  0.00  0.00    +0.000 A 
ATOM     52  C38 UNK     0      -1.271  -3.422  -0.407  0.00  0.00    +0.000 A 
ENDBRANCH  46  47
ENDBRANCH  30  46
ENDBRANCH  27  30
ENDBRANCH   1  26
BRANCH   1  53
ATOM     53  C26 UNK     0      -0.171   1.587   3.053  0.00  0.00    +0.000 C 
BRANCH  53  54
ATOM     54  C28 UNK     0      -1.476   0.977   3.622  0.00  0.00    +0.000 C 
ATOM     55  C33 UNK     0      -2.050   1.893   4.709  0.00  0.00    +0.000 C 
ATOM     56  C34 UNK     0      -1.249  -0.429   4.198  0.00  0.00    +0.000 C 
ENDBRANCH  53  54
ENDBRANCH   1  53
TORSDOF 20
