REMARK  Name = C:\Users\Maximilian\Desktop\Conformers\converted_pdb\conformers_pdb\TAK_242_conf_83.pdb
REMARK  25 active torsions:
REMARK  status: ('A' for Active; 'I' for Inactive)
REMARK    1  A    between atoms: C25_1  and  N10_2
REMARK    2  A    between atoms: C25_1  and  C27_26
REMARK    3  A    between atoms: C25_1  and  C26_53
REMARK    4  A    between atoms: C31_4  and  C30_6
REMARK    5  A    between atoms: C30_6  and  C32_7
REMARK    6  A    between atoms: C30_6  and  N11_15
REMARK    7  A    between atoms: C32_7  and  C35_8
REMARK    8  A    between atoms: C35_8  and  C44_9
REMARK    9  A    between atoms: C41_16  and  C36_19
REMARK   10  A    between atoms: C36_19  and  N12_20
REMARK   11  A    between atoms: N9_27  and  C21_30
REMARK   12  A    between atoms: C21_30  and  C24_31
REMARK   13  A    between atoms: C21_30  and  C20_38
REMARK   14  A    between atoms: C24_31  and  C29_32
REMARK   15  A    between atoms: N8_39  and  C15_42
REMARK   16  A    between atoms: C15_42  and  C18_43
REMARK   17  A    between atoms: C15_42  and  C16_47
REMARK   18  A    between atoms: C18_43  and  C19_44
REMARK   19  A    between atoms: C19_44  and  C23_45
REMARK   20  A    between atoms: C19_44  and  C22_46
REMARK   21  A    between atoms: C16_47  and  C13_49
REMARK   22  A    between atoms: C13_49  and  C17_52
REMARK   23  A    between atoms: C26_53  and  C28_54
REMARK   24  A    between atoms: C28_54  and  C33_55
REMARK   25  A    between atoms: C28_54  and  C34_56
REMARK                            x       y       z     vdW  Elec       q    Type
REMARK                         _______ _______ _______ _____ _____    ______ ____
ROOT
ATOM      1  C25 UNK     0      -0.185  -1.719   1.459  0.00  0.00    +0.000 C 
ENDROOT
BRANCH   1   2
ATOM      2  N10 UNK     0      -1.312  -1.348   0.595  0.00  0.00    +0.000 N 
ATOM      3  H77 UNK     0      -1.370  -1.771  -0.358  0.00  0.00    +0.000 HD
ATOM      4  C31 UNK     0      -2.450  -0.629   1.104  0.00  0.00    +0.000 C 
ATOM      5  O6  UNK     0      -2.462  -0.253   2.311  0.00  0.00    +0.000 OA
BRANCH   4   6
ATOM      6  C30 UNK     0      -3.674  -0.405   0.242  0.00  0.00    +0.000 C 
BRANCH   6   7
ATOM      7  N11 UNK     0      -4.649   0.455   0.930  0.00  0.00    +0.000 N 
ATOM      8  C41 UNK     0      -4.410   1.826   1.290  0.00  0.00    +0.000 C 
ATOM      9  O7  UNK     0      -3.279   2.350   1.095  0.00  0.00    +0.000 OA
ATOM     10  H87 UNK     0      -5.566   0.030   1.198  0.00  0.00    +0.000 HD
BRANCH   8  11
ATOM     11  C36 UNK     0      -5.483   2.630   1.962  0.00  0.00    +0.000 C 
BRANCH  11  12
ATOM     12  N12 UNK     0      -5.536   4.002   1.421  0.00  0.00    +0.000 NA
ATOM     13  C39 UNK     0      -6.336   4.864   2.312  0.00  0.00    +0.000 C 
ATOM     14  C42 UNK     0      -6.433   6.275   1.719  0.00  0.00    +0.000 C 
ATOM     15  O5  UNK     0      -7.023   6.231   0.432  0.00  0.00    +0.000 OA
ATOM     16  C43 UNK     0      -6.222   5.460  -0.441  0.00  0.00    +0.000 C 
ATOM     17  C40 UNK     0      -6.114   4.015   0.062  0.00  0.00    +0.000 C 
ENDBRANCH  11  12
ENDBRANCH   8  11
ENDBRANCH   6   7
BRANCH   6  18
ATOM     18  C32 UNK     0      -3.321   0.157  -1.157  0.00  0.00    +0.000 C 
BRANCH  18  19
ATOM     19  C35 UNK     0      -4.555   0.431  -2.036  0.00  0.00    +0.000 C 
BRANCH  19  20
ATOM     20  C44 UNK     0      -5.358  -0.819  -2.291  0.00  0.00    +0.000 A 
ATOM     21  C49 UNK     0      -4.880  -1.800  -3.177  0.00  0.00    +0.000 A 
ATOM     22  C51 UNK     0      -5.611  -2.974  -3.389  0.00  0.00    +0.000 A 
ATOM     23  C52 UNK     0      -6.818  -3.183  -2.717  0.00  0.00    +0.000 A 
ATOM     24  C50 UNK     0      -7.302  -2.207  -1.842  0.00  0.00    +0.000 A 
ATOM     25  C48 UNK     0      -6.574  -1.035  -1.619  0.00  0.00    +0.000 A 
ENDBRANCH  19  20
ENDBRANCH  18  19
ENDBRANCH   6  18
ENDBRANCH   4   6
ENDBRANCH   1   2
BRANCH   1  26
ATOM     26  C27 UNK     0       1.123  -1.709   0.704  0.00  0.00    +0.000 C 
ATOM     27  N9  UNK     0       2.352  -1.531   1.429  0.00  0.00    +0.000 N 
ATOM     28  H73 UNK     0       2.304  -1.555   2.474  0.00  0.00    +0.000 HD
ATOM     29  O4  UNK     0       1.136  -1.867  -0.546  0.00  0.00    +0.000 OA
BRANCH  27  30
ATOM     30  C21 UNK     0       3.656  -1.214   0.830  0.00  0.00    +0.000 C 
BRANCH  30  31
ATOM     31  C20 UNK     0       3.661   0.167   0.223  0.00  0.00    +0.000 C 
ATOM     32  N8  UNK     0       4.843   0.980   0.302  0.00  0.00    +0.000 N 
ATOM     33  H62 UNK     0       5.642   0.636   0.884  0.00  0.00    +0.000 HD
ATOM     34  O3  UNK     0       2.638   0.599  -0.380  0.00  0.00    +0.000 OA
BRANCH  32  35
ATOM     35  C15 UNK     0       4.948   2.283  -0.367  0.00  0.00    +0.000 C 
BRANCH  35  36
ATOM     36  C16 UNK     0       6.103   3.095   0.186  0.00  0.00    +0.000 C 
ATOM     37  O2  UNK     0       7.209   2.584   0.303  0.00  0.00    +0.000 OA
BRANCH  36  38
ATOM     38  C13 UNK     0       5.900   4.532   0.600  0.00  0.00    +0.000 C 
ATOM     39  O1  UNK     0       7.056   5.092   1.183  0.00  0.00    +0.000 OA
ATOM     40  C14 UNK     0       5.962   4.849   2.047  0.00  0.00    +0.000 C 
ATOM     41  C17 UNK     0       5.210   5.513  -0.348  0.00  0.00    +0.000 C 
ENDBRANCH  36  38
ENDBRANCH  35  36
BRANCH  35  42
ATOM     42  C18 UNK     0       5.020   2.141  -1.911  0.00  0.00    +0.000 C 
BRANCH  42  43
ATOM     43  C19 UNK     0       6.331   1.561  -2.507  0.00  0.00    +0.000 C 
ATOM     44  C23 UNK     0       6.313   1.714  -4.032  0.00  0.00    +0.000 C 
ATOM     45  C22 UNK     0       6.544   0.085  -2.146  0.00  0.00    +0.000 C 
ENDBRANCH  42  43
ENDBRANCH  35  42
ENDBRANCH  32  35
ENDBRANCH  30  31
BRANCH  30  46
ATOM     46  C24 UNK     0       4.117  -2.267  -0.200  0.00  0.00    +0.000 C 
BRANCH  46  47
ATOM     47  C29 UNK     0       4.065  -3.671   0.349  0.00  0.00    +0.000 A 
ATOM     48  C37 UNK     0       3.158  -4.611  -0.168  0.00  0.00    +0.000 A 
ATOM     49  C45 UNK     0       3.137  -5.919   0.328  0.00  0.00    +0.000 A 
ATOM     50  C47 UNK     0       4.007  -6.290   1.356  0.00  0.00    +0.000 A 
ATOM     51  C46 UNK     0       4.910  -5.361   1.879  0.00  0.00    +0.000 A 
ATOM     52  C38 UNK     0       4.944  -4.059   1.374  0.00  0.00    +0.000 A 
ENDBRANCH  46  47
ENDBRANCH  30  46
ENDBRANCH  27  30
ENDBRANCH   1  26
BRANCH   1  53
ATOM     53  C26 UNK     0      -0.437  -3.069   2.169  0.00  0.00    +0.000 C 
BRANCH  53  54
ATOM     54  C28 UNK     0      -0.656  -4.282   1.220  0.00  0.00    +0.000 C 
ATOM     55  C33 UNK     0      -2.145  -4.495   0.897  0.00  0.00    +0.000 C 
ATOM     56  C34 UNK     0      -0.089  -5.563   1.850  0.00  0.00    +0.000 C 
ENDBRANCH  53  54
ENDBRANCH   1  53
TORSDOF 20
