REMARK  Name = C:\Users\Maximilian\Desktop\Conformers\converted_pdb\conformers_pdb\TAK_242_conf_95.pdb
REMARK  25 active torsions:
REMARK  status: ('A' for Active; 'I' for Inactive)
REMARK    1  A    between atoms: C25_1  and  N10_2
REMARK    2  A    between atoms: C25_1  and  C27_26
REMARK    3  A    between atoms: C25_1  and  C26_53
REMARK    4  A    between atoms: C31_4  and  C30_6
REMARK    5  A    between atoms: C30_6  and  C32_7
REMARK    6  A    between atoms: C30_6  and  N11_15
REMARK    7  A    between atoms: C32_7  and  C35_8
REMARK    8  A    between atoms: C35_8  and  C44_9
REMARK    9  A    between atoms: C41_16  and  C36_19
REMARK   10  A    between atoms: C36_19  and  N12_20
REMARK   11  A    between atoms: N9_27  and  C21_30
REMARK   12  A    between atoms: C21_30  and  C24_31
REMARK   13  A    between atoms: C21_30  and  C20_38
REMARK   14  A    between atoms: C24_31  and  C29_32
REMARK   15  A    between atoms: N8_39  and  C15_42
REMARK   16  A    between atoms: C15_42  and  C18_43
REMARK   17  A    between atoms: C15_42  and  C16_47
REMARK   18  A    between atoms: C18_43  and  C19_44
REMARK   19  A    between atoms: C19_44  and  C23_45
REMARK   20  A    between atoms: C19_44  and  C22_46
REMARK   21  A    between atoms: C16_47  and  C13_49
REMARK   22  A    between atoms: C13_49  and  C17_52
REMARK   23  A    between atoms: C26_53  and  C28_54
REMARK   24  A    between atoms: C28_54  and  C33_55
REMARK   25  A    between atoms: C28_54  and  C34_56
REMARK                            x       y       z     vdW  Elec       q    Type
REMARK                         _______ _______ _______ _____ _____    ______ ____
ROOT
ATOM      1  C25 UNK     0      -1.076  -1.405   1.750  0.00  0.00    +0.000 C 
ENDROOT
BRANCH   1   2
ATOM      2  N10 UNK     0      -2.376  -1.562   1.083  0.00  0.00    +0.000 N 
ATOM      3  H77 UNK     0      -2.801  -2.516   1.023  0.00  0.00    +0.000 HD
ATOM      4  C31 UNK     0      -3.171  -0.456   0.627  0.00  0.00    +0.000 C 
ATOM      5  O6  UNK     0      -2.721   0.720   0.687  0.00  0.00    +0.000 OA
BRANCH   4   6
ATOM      6  C30 UNK     0      -4.537  -0.711   0.032  0.00  0.00    +0.000 C 
BRANCH   6   7
ATOM      7  N11 UNK     0      -5.408   0.452   0.241  0.00  0.00    +0.000 N 
ATOM      8  C41 UNK     0      -5.797   0.896   1.549  0.00  0.00    +0.000 C 
ATOM      9  O7  UNK     0      -5.376   0.298   2.576  0.00  0.00    +0.000 OA
ATOM     10  H87 UNK     0      -5.810   0.949  -0.584  0.00  0.00    +0.000 HD
BRANCH   8  11
ATOM     11  C36 UNK     0      -6.704   2.081   1.701  0.00  0.00    +0.000 C 
BRANCH  11  12
ATOM     12  N12 UNK     0      -6.176   3.233   0.939  0.00  0.00    +0.000 NA
ATOM     13  C39 UNK     0      -5.007   3.865   1.587  0.00  0.00    +0.000 C 
ATOM     14  C42 UNK     0      -5.420   4.786   2.752  0.00  0.00    +0.000 C 
ATOM     15  O5  UNK     0      -6.356   5.755   2.325  0.00  0.00    +0.000 OA
ATOM     16  C43 UNK     0      -7.528   5.109   1.869  0.00  0.00    +0.000 C 
ATOM     17  C40 UNK     0      -7.219   4.236   0.643  0.00  0.00    +0.000 C 
ENDBRANCH  11  12
ENDBRANCH   8  11
ENDBRANCH   6   7
BRANCH   6  18
ATOM     18  C32 UNK     0      -4.434  -1.034  -1.474  0.00  0.00    +0.000 C 
BRANCH  18  19
ATOM     19  C35 UNK     0      -3.692  -2.351  -1.755  0.00  0.00    +0.000 C 
BRANCH  19  20
ATOM     20  C44 UNK     0      -3.768  -2.704  -3.215  0.00  0.00    +0.000 A 
ATOM     21  C49 UNK     0      -4.827  -3.488  -3.702  0.00  0.00    +0.000 A 
ATOM     22  C51 UNK     0      -4.901  -3.803  -5.062  0.00  0.00    +0.000 A 
ATOM     23  C52 UNK     0      -3.924  -3.334  -5.945  0.00  0.00    +0.000 A 
ATOM     24  C50 UNK     0      -2.876  -2.541  -5.469  0.00  0.00    +0.000 A 
ATOM     25  C48 UNK     0      -2.798  -2.224  -4.110  0.00  0.00    +0.000 A 
ENDBRANCH  19  20
ENDBRANCH  18  19
ENDBRANCH   6  18
ENDBRANCH   4   6
ENDBRANCH   1   2
BRANCH   1  26
ATOM     26  C27 UNK     0      -0.102  -0.608   0.917  0.00  0.00    +0.000 C 
ATOM     27  N9  UNK     0       0.985   0.066   1.568  0.00  0.00    +0.000 N 
ATOM     28  H73 UNK     0       1.227  -0.239   2.537  0.00  0.00    +0.000 HD
ATOM     29  O4  UNK     0      -0.218  -0.562  -0.339  0.00  0.00    +0.000 OA
BRANCH  27  30
ATOM     30  C21 UNK     0       1.847   1.035   0.883  0.00  0.00    +0.000 C 
BRANCH  30  31
ATOM     31  C20 UNK     0       3.028   0.350   0.241  0.00  0.00    +0.000 C 
ATOM     32  N8  UNK     0       3.701   0.971  -0.867  0.00  0.00    +0.000 N 
ATOM     33  H62 UNK     0       3.292   1.843  -1.277  0.00  0.00    +0.000 HD
ATOM     34  O3  UNK     0       3.454  -0.742   0.708  0.00  0.00    +0.000 OA
BRANCH  32  35
ATOM     35  C15 UNK     0       4.848   0.343  -1.535  0.00  0.00    +0.000 C 
BRANCH  35  36
ATOM     36  C16 UNK     0       4.347  -0.641  -2.572  0.00  0.00    +0.000 C 
ATOM     37  O2  UNK     0       3.375  -0.336  -3.251  0.00  0.00    +0.000 OA
BRANCH  36  38
ATOM     38  C13 UNK     0       5.065  -1.949  -2.846  0.00  0.00    +0.000 C 
ATOM     39  O1  UNK     0       5.297  -2.133  -4.225  0.00  0.00    +0.000 OA
ATOM     40  C14 UNK     0       4.356  -3.000  -3.620  0.00  0.00    +0.000 C 
ATOM     41  C17 UNK     0       6.275  -2.380  -2.010  0.00  0.00    +0.000 C 
ENDBRANCH  36  38
ENDBRANCH  35  36
BRANCH  35  42
ATOM     42  C18 UNK     0       5.748   1.398  -2.219  0.00  0.00    +0.000 C 
BRANCH  42  43
ATOM     43  C19 UNK     0       6.655   2.178  -1.234  0.00  0.00    +0.000 C 
ATOM     44  C23 UNK     0       5.881   3.264  -0.474  0.00  0.00    +0.000 C 
ATOM     45  C22 UNK     0       7.824   2.821  -1.994  0.00  0.00    +0.000 C 
ENDBRANCH  42  43
ENDBRANCH  35  42
ENDBRANCH  32  35
ENDBRANCH  30  31
BRANCH  30  46
ATOM     46  C24 UNK     0       2.291   2.159   1.845  0.00  0.00    +0.000 C 
BRANCH  46  47
ATOM     47  C29 UNK     0       3.015   1.660   3.076  0.00  0.00    +0.000 A 
ATOM     48  C37 UNK     0       4.376   1.316   3.019  0.00  0.00    +0.000 A 
ATOM     49  C45 UNK     0       5.026   0.810   4.149  0.00  0.00    +0.000 A 
ATOM     50  C47 UNK     0       4.328   0.654   5.349  0.00  0.00    +0.000 A 
ATOM     51  C46 UNK     0       2.981   1.013   5.423  0.00  0.00    +0.000 A 
ATOM     52  C38 UNK     0       2.325   1.516   4.294  0.00  0.00    +0.000 A 
ENDBRANCH  46  47
ENDBRANCH  30  46
ENDBRANCH  27  30
ENDBRANCH   1  26
BRANCH   1  53
ATOM     53  C26 UNK     0      -0.485  -2.781   2.142  0.00  0.00    +0.000 C 
BRANCH  53  54
ATOM     54  C28 UNK     0      -0.159  -3.701   0.928  0.00  0.00    +0.000 C 
ATOM     55  C33 UNK     0      -0.577  -5.149   1.212  0.00  0.00    +0.000 C 
ATOM     56  C34 UNK     0       1.332  -3.654   0.569  0.00  0.00    +0.000 C 
ENDBRANCH  53  54
ENDBRANCH   1  53
TORSDOF 20
