REMARK  Name = C:\Users\Maximilian\Desktop\Conformers\converted_pdb\conformers_pdb\TAK_242_conf_76.pdb
REMARK  25 active torsions:
REMARK  status: ('A' for Active; 'I' for Inactive)
REMARK    1  A    between atoms: C25_1  and  N10_2
REMARK    2  A    between atoms: C25_1  and  C27_26
REMARK    3  A    between atoms: C25_1  and  C26_53
REMARK    4  A    between atoms: C31_4  and  C30_6
REMARK    5  A    between atoms: C30_6  and  C32_7
REMARK    6  A    between atoms: C30_6  and  N11_15
REMARK    7  A    between atoms: C32_7  and  C35_8
REMARK    8  A    between atoms: C35_8  and  C44_9
REMARK    9  A    between atoms: C41_16  and  C36_19
REMARK   10  A    between atoms: C36_19  and  N12_20
REMARK   11  A    between atoms: N9_27  and  C21_30
REMARK   12  A    between atoms: C21_30  and  C24_31
REMARK   13  A    between atoms: C21_30  and  C20_38
REMARK   14  A    between atoms: C24_31  and  C29_32
REMARK   15  A    between atoms: N8_39  and  C15_42
REMARK   16  A    between atoms: C15_42  and  C18_43
REMARK   17  A    between atoms: C15_42  and  C16_47
REMARK   18  A    between atoms: C18_43  and  C19_44
REMARK   19  A    between atoms: C19_44  and  C23_45
REMARK   20  A    between atoms: C19_44  and  C22_46
REMARK   21  A    between atoms: C16_47  and  C13_49
REMARK   22  A    between atoms: C13_49  and  C17_52
REMARK   23  A    between atoms: C26_53  and  C28_54
REMARK   24  A    between atoms: C28_54  and  C33_55
REMARK   25  A    between atoms: C28_54  and  C34_56
REMARK                            x       y       z     vdW  Elec       q    Type
REMARK                         _______ _______ _______ _____ _____    ______ ____
ROOT
ATOM      1  C25 UNK     0       1.414  -1.422   1.292  0.00  0.00    +0.000 C 
ENDROOT
BRANCH   1   2
ATOM      2  N10 UNK     0       2.724  -0.937   0.840  0.00  0.00    +0.000 N 
ATOM      3  H77 UNK     0       3.183  -0.143   1.352  0.00  0.00    +0.000 HD
ATOM      4  C31 UNK     0       3.385  -1.463  -0.315  0.00  0.00    +0.000 C 
ATOM      5  O6  UNK     0       2.821  -2.342  -1.021  0.00  0.00    +0.000 OA
BRANCH   4   6
ATOM      6  C30 UNK     0       4.774  -1.000  -0.673  0.00  0.00    +0.000 C 
BRANCH   6   7
ATOM      7  N11 UNK     0       4.809   0.463  -0.737  0.00  0.00    +0.000 N 
ATOM      8  C41 UNK     0       4.149   1.201  -1.774  0.00  0.00    +0.000 C 
ATOM      9  O7  UNK     0       3.587   0.596  -2.727  0.00  0.00    +0.000 OA
ATOM     10  H87 UNK     0       5.310   0.998   0.011  0.00  0.00    +0.000 HD
BRANCH   8  11
ATOM     11  C36 UNK     0       4.170   2.702  -1.758  0.00  0.00    +0.000 C 
BRANCH  11  12
ATOM     12  N12 UNK     0       3.789   3.206  -0.422  0.00  0.00    +0.000 NA
ATOM     13  C39 UNK     0       2.332   3.104  -0.200  0.00  0.00    +0.000 C 
ATOM     14  C42 UNK     0       1.927   3.789   1.119  0.00  0.00    +0.000 C 
ATOM     15  O5  UNK     0       3.061   4.124   1.894  0.00  0.00    +0.000 OA
ATOM     16  C43 UNK     0       3.850   5.073   1.197  0.00  0.00    +0.000 C 
ATOM     17  C40 UNK     0       4.229   4.598  -0.224  0.00  0.00    +0.000 C 
ENDBRANCH  11  12
ENDBRANCH   8  11
ENDBRANCH   6   7
BRANCH   6  18
ATOM     18  C32 UNK     0       5.801  -1.504   0.364  0.00  0.00    +0.000 C 
BRANCH  18  19
ATOM     19  C35 UNK     0       5.970  -3.033   0.371  0.00  0.00    +0.000 C 
BRANCH  19  20
ATOM     20  C44 UNK     0       6.705  -3.525  -0.848  0.00  0.00    +0.000 A 
ATOM     21  C49 UNK     0       6.002  -4.104  -1.920  0.00  0.00    +0.000 A 
ATOM     22  C51 UNK     0       6.691  -4.566  -3.049  0.00  0.00    +0.000 A 
ATOM     23  C52 UNK     0       8.079  -4.441  -3.120  0.00  0.00    +0.000 A 
ATOM     24  C50 UNK     0       8.787  -3.868  -2.056  0.00  0.00    +0.000 A 
ATOM     25  C48 UNK     0       8.104  -3.405  -0.926  0.00  0.00    +0.000 A 
ENDBRANCH  19  20
ENDBRANCH  18  19
ENDBRANCH   6  18
ENDBRANCH   4   6
ENDBRANCH   1   2
BRANCH   1  26
ATOM     26  C27 UNK     0       0.350  -1.026   0.298  0.00  0.00    +0.000 C 
ATOM     27  N9  UNK     0      -0.663  -1.966  -0.097  0.00  0.00    +0.000 N 
ATOM     28  H73 UNK     0      -0.619  -2.937   0.280  0.00  0.00    +0.000 HD
ATOM     29  O4  UNK     0       0.330   0.152  -0.162  0.00  0.00    +0.000 OA
BRANCH  27  30
ATOM     30  C21 UNK     0      -1.816  -1.554  -0.903  0.00  0.00    +0.000 C 
BRANCH  30  31
ATOM     31  C20 UNK     0      -2.816  -0.827  -0.046  0.00  0.00    +0.000 C 
ATOM     32  N8  UNK     0      -3.434   0.370  -0.539  0.00  0.00    +0.000 N 
ATOM     33  H62 UNK     0      -3.208   0.673  -1.517  0.00  0.00    +0.000 HD
ATOM     34  O3  UNK     0      -3.153  -1.306   1.072  0.00  0.00    +0.000 OA
BRANCH  32  35
ATOM     35  C15 UNK     0      -4.495   1.074   0.187  0.00  0.00    +0.000 C 
BRANCH  35  36
ATOM     36  C16 UNK     0      -4.401   2.544  -0.145  0.00  0.00    +0.000 C 
ATOM     37  O2  UNK     0      -4.798   2.950  -1.230  0.00  0.00    +0.000 OA
BRANCH  36  38
ATOM     38  C13 UNK     0      -3.680   3.483   0.784  0.00  0.00    +0.000 C 
ATOM     39  O1  UNK     0      -3.237   4.666   0.162  0.00  0.00    +0.000 OA
ATOM     40  C14 UNK     0      -2.244   3.715   0.500  0.00  0.00    +0.000 C 
ATOM     41  C17 UNK     0      -4.178   3.702   2.214  0.00  0.00    +0.000 C 
ENDBRANCH  36  38
ENDBRANCH  35  36
BRANCH  35  42
ATOM     42  C18 UNK     0      -5.853   0.438  -0.191  0.00  0.00    +0.000 C 
BRANCH  42  43
ATOM     43  C19 UNK     0      -7.085   0.871   0.642  0.00  0.00    +0.000 C 
ATOM     44  C23 UNK     0      -7.594   2.270   0.277  0.00  0.00    +0.000 C 
ATOM     45  C22 UNK     0      -6.872   0.721   2.155  0.00  0.00    +0.000 C 
ENDBRANCH  42  43
ENDBRANCH  35  42
ENDBRANCH  32  35
ENDBRANCH  30  31
BRANCH  30  46
ATOM     46  C24 UNK     0      -2.461  -2.766  -1.606  0.00  0.00    +0.000 C 
BRANCH  46  47
ATOM     47  C29 UNK     0      -3.656  -2.350  -2.432  0.00  0.00    +0.000 A 
ATOM     48  C37 UNK     0      -3.481  -1.564  -3.584  0.00  0.00    +0.000 A 
ATOM     49  C45 UNK     0      -4.591  -1.083  -4.284  0.00  0.00    +0.000 A 
ATOM     50  C47 UNK     0      -5.883  -1.390  -3.847  0.00  0.00    +0.000 A 
ATOM     51  C46 UNK     0      -6.062  -2.192  -2.716  0.00  0.00    +0.000 A 
ATOM     52  C38 UNK     0      -4.957  -2.669  -2.007  0.00  0.00    +0.000 A 
ENDBRANCH  46  47
ENDBRANCH  30  46
ENDBRANCH  27  30
ENDBRANCH   1  26
BRANCH   1  53
ATOM     53  C26 UNK     0       1.102  -0.850   2.694  0.00  0.00    +0.000 C 
BRANCH  53  54
ATOM     54  C28 UNK     0      -0.206  -1.402   3.322  0.00  0.00    +0.000 C 
ATOM     55  C33 UNK     0      -0.617  -0.541   4.528  0.00  0.00    +0.000 C 
ATOM     56  C34 UNK     0      -0.068  -2.870   3.755  0.00  0.00    +0.000 C 
ENDBRANCH  53  54
ENDBRANCH   1  53
TORSDOF 20
