REMARK  Name = C:\Users\Maximilian\Desktop\Conformers\converted_pdb\conformers_pdb\TAK_242_conf_99.pdb
REMARK  25 active torsions:
REMARK  status: ('A' for Active; 'I' for Inactive)
REMARK    1  A    between atoms: C25_1  and  N10_2
REMARK    2  A    between atoms: C25_1  and  C27_26
REMARK    3  A    between atoms: C25_1  and  C26_53
REMARK    4  A    between atoms: C31_4  and  C30_6
REMARK    5  A    between atoms: C30_6  and  C32_7
REMARK    6  A    between atoms: C30_6  and  N11_15
REMARK    7  A    between atoms: C32_7  and  C35_8
REMARK    8  A    between atoms: C35_8  and  C44_9
REMARK    9  A    between atoms: C41_16  and  C36_19
REMARK   10  A    between atoms: C36_19  and  N12_20
REMARK   11  A    between atoms: N9_27  and  C21_30
REMARK   12  A    between atoms: C21_30  and  C24_31
REMARK   13  A    between atoms: C21_30  and  C20_38
REMARK   14  A    between atoms: C24_31  and  C29_32
REMARK   15  A    between atoms: N8_39  and  C15_42
REMARK   16  A    between atoms: C15_42  and  C18_43
REMARK   17  A    between atoms: C15_42  and  C16_47
REMARK   18  A    between atoms: C18_43  and  C19_44
REMARK   19  A    between atoms: C19_44  and  C23_45
REMARK   20  A    between atoms: C19_44  and  C22_46
REMARK   21  A    between atoms: C16_47  and  C13_49
REMARK   22  A    between atoms: C13_49  and  C17_52
REMARK   23  A    between atoms: C26_53  and  C28_54
REMARK   24  A    between atoms: C28_54  and  C33_55
REMARK   25  A    between atoms: C28_54  and  C34_56
REMARK                            x       y       z     vdW  Elec       q    Type
REMARK                         _______ _______ _______ _____ _____    ______ ____
ROOT
ATOM      1  C25 UNK     0       0.030   1.535   1.512  0.00  0.00    +0.000 C 
ENDROOT
BRANCH   1   2
ATOM      2  N10 UNK     0       1.464   1.525   1.826  0.00  0.00    +0.000 N 
ATOM      3  H77 UNK     0       2.016   2.405   1.701  0.00  0.00    +0.000 HD
ATOM      4  C31 UNK     0       2.179   0.313   2.112  0.00  0.00    +0.000 C 
ATOM      5  O6  UNK     0       1.549  -0.751   2.357  0.00  0.00    +0.000 OA
BRANCH   4   6
ATOM      6  C30 UNK     0       3.686   0.293   2.106  0.00  0.00    +0.000 C 
BRANCH   6   7
ATOM      7  N11 UNK     0       4.187   0.930   0.884  0.00  0.00    +0.000 N 
ATOM      8  C41 UNK     0       4.080   0.301  -0.404  0.00  0.00    +0.000 C 
ATOM      9  O7  UNK     0       3.440  -0.778  -0.524  0.00  0.00    +0.000 OA
ATOM     10  H87 UNK     0       4.591   1.894   0.939  0.00  0.00    +0.000 HD
BRANCH   8  11
ATOM     11  C36 UNK     0       4.680   0.962  -1.622  0.00  0.00    +0.000 C 
BRANCH  11  12
ATOM     12  N12 UNK     0       5.673   0.134  -2.342  0.00  0.00    +0.000 NA
ATOM     13  C39 UNK     0       6.726  -0.418  -1.471  0.00  0.00    +0.000 C 
ATOM     14  C42 UNK     0       7.751  -1.171  -2.330  0.00  0.00    +0.000 C 
ATOM     15  O5  UNK     0       7.124  -2.203  -3.069  0.00  0.00    +0.000 OA
ATOM     16  C43 UNK     0       6.164  -1.648  -3.951  0.00  0.00    +0.000 C 
ATOM     17  C40 UNK     0       5.062  -0.923  -3.167  0.00  0.00    +0.000 C 
ENDBRANCH  11  12
ENDBRANCH   8  11
ENDBRANCH   6   7
BRANCH   6  18
ATOM     18  C32 UNK     0       4.232   0.995   3.371  0.00  0.00    +0.000 C 
BRANCH  18  19
ATOM     19  C35 UNK     0       5.767   0.969   3.478  0.00  0.00    +0.000 C 
BRANCH  19  20
ATOM     20  C44 UNK     0       6.314  -0.435   3.487  0.00  0.00    +0.000 A 
ATOM     21  C49 UNK     0       6.931  -0.961   2.341  0.00  0.00    +0.000 A 
ATOM     22  C51 UNK     0       7.392  -2.281   2.330  0.00  0.00    +0.000 A 
ATOM     23  C52 UNK     0       7.247  -3.080   3.467  0.00  0.00    +0.000 A 
ATOM     24  C50 UNK     0       6.642  -2.562   4.616  0.00  0.00    +0.000 A 
ATOM     25  C48 UNK     0       6.173  -1.245   4.626  0.00  0.00    +0.000 A 
ENDBRANCH  19  20
ENDBRANCH  18  19
ENDBRANCH   6  18
ENDBRANCH   4   6
ENDBRANCH   1   2
BRANCH   1  26
ATOM     26  C27 UNK     0      -0.190   0.926   0.148  0.00  0.00    +0.000 C 
ATOM     27  N9  UNK     0      -1.318   0.069  -0.087  0.00  0.00    +0.000 N 
ATOM     28  H73 UNK     0      -1.883  -0.243   0.736  0.00  0.00    +0.000 HD
ATOM     29  O4  UNK     0       0.605   1.205  -0.791  0.00  0.00    +0.000 OA
BRANCH  27  30
ATOM     30  C21 UNK     0      -1.600  -0.537  -1.395  0.00  0.00    +0.000 C 
BRANCH  30  31
ATOM     31  C20 UNK     0      -3.071  -0.467  -1.755  0.00  0.00    +0.000 C 
ATOM     32  N8  UNK     0      -3.992   0.385  -1.037  0.00  0.00    +0.000 N 
ATOM     33  H62 UNK     0      -3.701   0.796  -0.123  0.00  0.00    +0.000 HD
ATOM     34  O3  UNK     0      -3.464  -1.095  -2.777  0.00  0.00    +0.000 OA
BRANCH  32  35
ATOM     35  C15 UNK     0      -5.300   0.832  -1.540  0.00  0.00    +0.000 C 
BRANCH  35  36
ATOM     36  C16 UNK     0      -5.141   1.703  -2.771  0.00  0.00    +0.000 C 
ATOM     37  O2  UNK     0      -4.353   1.398  -3.651  0.00  0.00    +0.000 OA
BRANCH  36  38
ATOM     38  C13 UNK     0      -5.922   2.979  -2.915  0.00  0.00    +0.000 C 
ATOM     39  O1  UNK     0      -7.273   2.844  -2.550  0.00  0.00    +0.000 OA
ATOM     40  C14 UNK     0      -7.004   3.006  -3.927  0.00  0.00    +0.000 C 
ATOM     41  C17 UNK     0      -5.308   4.304  -2.464  0.00  0.00    +0.000 C 
ENDBRANCH  36  38
ENDBRANCH  35  36
BRANCH  35  42
ATOM     42  C18 UNK     0      -6.286  -0.334  -1.797  0.00  0.00    +0.000 C 
BRANCH  42  43
ATOM     43  C19 UNK     0      -6.823  -1.001  -0.503  0.00  0.00    +0.000 C 
ATOM     44  C23 UNK     0      -5.801  -1.963   0.119  0.00  0.00    +0.000 C 
ATOM     45  C22 UNK     0      -8.123  -1.764  -0.806  0.00  0.00    +0.000 C 
ENDBRANCH  42  43
ENDBRANCH  35  42
ENDBRANCH  32  35
ENDBRANCH  30  31
BRANCH  30  46
ATOM     46  C24 UNK     0      -1.044  -1.978  -1.440  0.00  0.00    +0.000 C 
BRANCH  46  47
ATOM     47  C29 UNK     0      -1.654  -2.881  -0.396  0.00  0.00    +0.000 A 
ATOM     48  C37 UNK     0      -2.778  -3.664  -0.700  0.00  0.00    +0.000 A 
ATOM     49  C45 UNK     0      -3.354  -4.483   0.276  0.00  0.00    +0.000 A 
ATOM     50  C47 UNK     0      -2.820  -4.519   1.565  0.00  0.00    +0.000 A 
ATOM     51  C46 UNK     0      -1.695  -3.750   1.875  0.00  0.00    +0.000 A 
ATOM     52  C38 UNK     0      -1.107  -2.942   0.898  0.00  0.00    +0.000 A 
ENDBRANCH  46  47
ENDBRANCH  30  46
ENDBRANCH  27  30
ENDBRANCH   1  26
BRANCH   1  53
ATOM     53  C26 UNK     0      -0.511   2.984   1.559  0.00  0.00    +0.000 C 
BRANCH  53  54
ATOM     54  C28 UNK     0      -2.035   3.114   1.294  0.00  0.00    +0.000 C 
ATOM     55  C33 UNK     0      -2.419   4.594   1.152  0.00  0.00    +0.000 C 
ATOM     56  C34 UNK     0      -2.882   2.468   2.404  0.00  0.00    +0.000 C 
ENDBRANCH  53  54
ENDBRANCH   1  53
TORSDOF 20
