REMARK  Name = C:\Users\Maximilian\Desktop\Conformers\converted_pdb\conformers_pdb\TAK_242_conf_36.pdb
REMARK  25 active torsions:
REMARK  status: ('A' for Active; 'I' for Inactive)
REMARK    1  A    between atoms: C25_1  and  N10_2
REMARK    2  A    between atoms: C25_1  and  C27_26
REMARK    3  A    between atoms: C25_1  and  C26_53
REMARK    4  A    between atoms: C31_4  and  C30_6
REMARK    5  A    between atoms: C30_6  and  C32_7
REMARK    6  A    between atoms: C30_6  and  N11_15
REMARK    7  A    between atoms: C32_7  and  C35_8
REMARK    8  A    between atoms: C35_8  and  C44_9
REMARK    9  A    between atoms: C41_16  and  C36_19
REMARK   10  A    between atoms: C36_19  and  N12_20
REMARK   11  A    between atoms: N9_27  and  C21_30
REMARK   12  A    between atoms: C21_30  and  C24_31
REMARK   13  A    between atoms: C21_30  and  C20_38
REMARK   14  A    between atoms: C24_31  and  C29_32
REMARK   15  A    between atoms: N8_39  and  C15_42
REMARK   16  A    between atoms: C15_42  and  C18_43
REMARK   17  A    between atoms: C15_42  and  C16_47
REMARK   18  A    between atoms: C18_43  and  C19_44
REMARK   19  A    between atoms: C19_44  and  C23_45
REMARK   20  A    between atoms: C19_44  and  C22_46
REMARK   21  A    between atoms: C16_47  and  C13_49
REMARK   22  A    between atoms: C13_49  and  C17_52
REMARK   23  A    between atoms: C26_53  and  C28_54
REMARK   24  A    between atoms: C28_54  and  C33_55
REMARK   25  A    between atoms: C28_54  and  C34_56
REMARK                            x       y       z     vdW  Elec       q    Type
REMARK                         _______ _______ _______ _____ _____    ______ ____
ROOT
ATOM      1  C25 UNK     0       0.512  -1.726  -0.810  0.00  0.00    +0.000 C 
ENDROOT
BRANCH   1   2
ATOM      2  N10 UNK     0       1.610  -0.866  -0.356  0.00  0.00    +0.000 N 
ATOM      3  H77 UNK     0       1.889  -0.904   0.650  0.00  0.00    +0.000 HD
ATOM      4  C31 UNK     0       2.402  -0.078  -1.254  0.00  0.00    +0.000 C 
ATOM      5  O6  UNK     0       1.969   0.206  -2.404  0.00  0.00    +0.000 OA
BRANCH   4   6
ATOM      6  C30 UNK     0       3.778   0.382  -0.845  0.00  0.00    +0.000 C 
BRANCH   6   7
ATOM      7  N11 UNK     0       3.706   1.089   0.438  0.00  0.00    +0.000 N 
ATOM      8  C41 UNK     0       3.085   2.376   0.570  0.00  0.00    +0.000 C 
ATOM      9  O7  UNK     0       2.509   2.909  -0.414  0.00  0.00    +0.000 OA
ATOM     10  H87 UNK     0       4.154   0.665   1.284  0.00  0.00    +0.000 HD
BRANCH   8  11
ATOM     11  C36 UNK     0       3.143   3.113   1.878  0.00  0.00    +0.000 C 
BRANCH  11  12
ATOM     12  N12 UNK     0       4.117   4.227   1.816  0.00  0.00    +0.000 NA
ATOM     13  C39 UNK     0       3.980   5.149   2.971  0.00  0.00    +0.000 C 
ATOM     14  C42 UNK     0       4.970   4.829   4.111  0.00  0.00    +0.000 C 
ATOM     15  O5  UNK     0       5.277   3.452   4.124  0.00  0.00    +0.000 OA
ATOM     16  C43 UNK     0       6.044   3.115   2.980  0.00  0.00    +0.000 C 
ATOM     17  C40 UNK     0       5.514   3.761   1.676  0.00  0.00    +0.000 C 
ENDBRANCH  11  12
ENDBRANCH   8  11
ENDBRANCH   6   7
BRANCH   6  18
ATOM     18  C32 UNK     0       4.738  -0.819  -0.737  0.00  0.00    +0.000 C 
BRANCH  18  19
ATOM     19  C35 UNK     0       4.970  -1.517  -2.086  0.00  0.00    +0.000 C 
BRANCH  19  20
ATOM     20  C44 UNK     0       5.864  -2.714  -1.909  0.00  0.00    +0.000 A 
ATOM     21  C49 UNK     0       5.314  -3.970  -1.594  0.00  0.00    +0.000 A 
ATOM     22  C51 UNK     0       6.149  -5.070  -1.380  0.00  0.00    +0.000 A 
ATOM     23  C52 UNK     0       7.537  -4.927  -1.480  0.00  0.00    +0.000 A 
ATOM     24  C50 UNK     0       8.090  -3.680  -1.781  0.00  0.00    +0.000 A 
ATOM     25  C48 UNK     0       7.259  -2.575  -1.992  0.00  0.00    +0.000 A 
ENDBRANCH  19  20
ENDBRANCH  18  19
ENDBRANCH   6  18
ENDBRANCH   4   6
ENDBRANCH   1   2
BRANCH   1  26
ATOM     26  C27 UNK     0      -0.783  -1.264  -0.193  0.00  0.00    +0.000 C 
ATOM     27  N9  UNK     0      -2.013  -1.399  -0.927  0.00  0.00    +0.000 N 
ATOM     28  H73 UNK     0      -1.974  -1.837  -1.874  0.00  0.00    +0.000 HD
ATOM     29  O4  UNK     0      -0.783  -0.786   0.975  0.00  0.00    +0.000 OA
BRANCH  27  30
ATOM     30  C21 UNK     0      -3.330  -0.943  -0.458  0.00  0.00    +0.000 C 
BRANCH  30  31
ATOM     31  C20 UNK     0      -3.431   0.562  -0.473  0.00  0.00    +0.000 C 
ATOM     32  N8  UNK     0      -4.725   1.182  -0.460  0.00  0.00    +0.000 N 
ATOM     33  H62 UNK     0      -5.566   0.560  -0.453  0.00  0.00    +0.000 HD
ATOM     34  O3  UNK     0      -2.389   1.271  -0.472  0.00  0.00    +0.000 OA
BRANCH  32  35
ATOM     35  C15 UNK     0      -4.919   2.614  -0.722  0.00  0.00    +0.000 C 
BRANCH  35  36
ATOM     36  C16 UNK     0      -5.107   2.837  -2.212  0.00  0.00    +0.000 C 
ATOM     37  O2  UNK     0      -5.400   1.895  -2.934  0.00  0.00    +0.000 OA
BRANCH  36  38
ATOM     38  C13 UNK     0      -4.948   4.213  -2.820  0.00  0.00    +0.000 C 
ATOM     39  O1  UNK     0      -6.145   4.953  -2.782  0.00  0.00    +0.000 OA
ATOM     40  C14 UNK     0      -5.708   4.535  -4.055  0.00  0.00    +0.000 C 
ATOM     41  C17 UNK     0      -3.730   5.071  -2.472  0.00  0.00    +0.000 C 
ENDBRANCH  36  38
ENDBRANCH  35  36
BRANCH  35  42
ATOM     42  C18 UNK     0      -6.133   3.147   0.075  0.00  0.00    +0.000 C 
BRANCH  42  43
ATOM     43  C19 UNK     0      -5.817   3.452   1.561  0.00  0.00    +0.000 C 
ATOM     44  C23 UNK     0      -5.453   2.190   2.356  0.00  0.00    +0.000 C 
ATOM     45  C22 UNK     0      -7.013   4.157   2.218  0.00  0.00    +0.000 C 
ENDBRANCH  42  43
ENDBRANCH  35  42
ENDBRANCH  32  35
ENDBRANCH  30  31
BRANCH  30  46
ATOM     46  C24 UNK     0      -3.706  -1.517   0.925  0.00  0.00    +0.000 C 
BRANCH  46  47
ATOM     47  C29 UNK     0      -3.468  -3.005   1.013  0.00  0.00    +0.000 A 
ATOM     48  C37 UNK     0      -2.524  -3.523   1.917  0.00  0.00    +0.000 A 
ATOM     49  C45 UNK     0      -2.309  -4.901   2.000  0.00  0.00    +0.000 A 
ATOM     50  C47 UNK     0      -3.020  -5.772   1.171  0.00  0.00    +0.000 A 
ATOM     51  C46 UNK     0      -3.961  -5.266   0.270  0.00  0.00    +0.000 A 
ATOM     52  C38 UNK     0      -4.191  -3.890   0.196  0.00  0.00    +0.000 A 
ENDBRANCH  46  47
ENDBRANCH  30  46
ENDBRANCH  27  30
ENDBRANCH   1  26
BRANCH   1  53
ATOM     53  C26 UNK     0       0.834  -3.188  -0.433  0.00  0.00    +0.000 C 
BRANCH  53  54
ATOM     54  C28 UNK     0      -0.118  -4.248  -1.041  0.00  0.00    +0.000 C 
ATOM     55  C33 UNK     0       0.209  -5.630  -0.460  0.00  0.00    +0.000 C 
ATOM     56  C34 UNK     0      -0.030  -4.308  -2.576  0.00  0.00    +0.000 C 
ENDBRANCH  53  54
ENDBRANCH   1  53
TORSDOF 20
