REMARK  Name = C:\Users\Maximilian\Desktop\Conformers\converted_pdb\conformers_pdb\TAK_242_conf_73.pdb
REMARK  25 active torsions:
REMARK  status: ('A' for Active; 'I' for Inactive)
REMARK    1  A    between atoms: C25_1  and  N10_2
REMARK    2  A    between atoms: C25_1  and  C27_26
REMARK    3  A    between atoms: C25_1  and  C26_53
REMARK    4  A    between atoms: C31_4  and  C30_6
REMARK    5  A    between atoms: C30_6  and  C32_7
REMARK    6  A    between atoms: C30_6  and  N11_15
REMARK    7  A    between atoms: C32_7  and  C35_8
REMARK    8  A    between atoms: C35_8  and  C44_9
REMARK    9  A    between atoms: C41_16  and  C36_19
REMARK   10  A    between atoms: C36_19  and  N12_20
REMARK   11  A    between atoms: N9_27  and  C21_30
REMARK   12  A    between atoms: C21_30  and  C24_31
REMARK   13  A    between atoms: C21_30  and  C20_38
REMARK   14  A    between atoms: C24_31  and  C29_32
REMARK   15  A    between atoms: N8_39  and  C15_42
REMARK   16  A    between atoms: C15_42  and  C18_43
REMARK   17  A    between atoms: C15_42  and  C16_47
REMARK   18  A    between atoms: C18_43  and  C19_44
REMARK   19  A    between atoms: C19_44  and  C23_45
REMARK   20  A    between atoms: C19_44  and  C22_46
REMARK   21  A    between atoms: C16_47  and  C13_49
REMARK   22  A    between atoms: C13_49  and  C17_52
REMARK   23  A    between atoms: C26_53  and  C28_54
REMARK   24  A    between atoms: C28_54  and  C33_55
REMARK   25  A    between atoms: C28_54  and  C34_56
REMARK                            x       y       z     vdW  Elec       q    Type
REMARK                         _______ _______ _______ _____ _____    ______ ____
ROOT
ATOM      1  C25 UNK     0      -0.473   1.624  -0.461  0.00  0.00    +0.000 C 
ENDROOT
BRANCH   1   2
ATOM      2  N10 UNK     0      -1.830   1.080  -0.623  0.00  0.00    +0.000 N 
ATOM      3  H77 UNK     0      -2.358   1.370  -1.478  0.00  0.00    +0.000 HD
ATOM      4  C31 UNK     0      -2.491   0.200   0.303  0.00  0.00    +0.000 C 
ATOM      5  O6  UNK     0      -1.904  -0.183   1.352  0.00  0.00    +0.000 OA
BRANCH   4   6
ATOM      6  C30 UNK     0      -3.917  -0.226   0.050  0.00  0.00    +0.000 C 
BRANCH   6   7
ATOM      7  N11 UNK     0      -4.108  -1.607   0.500  0.00  0.00    +0.000 N 
ATOM      8  C41 UNK     0      -3.653  -2.721  -0.276  0.00  0.00    +0.000 C 
ATOM      9  O7  UNK     0      -3.097  -2.535  -1.392  0.00  0.00    +0.000 OA
ATOM     10  H87 UNK     0      -4.532  -1.785   1.444  0.00  0.00    +0.000 HD
BRANCH   8  11
ATOM     11  C36 UNK     0      -3.894  -4.123   0.195  0.00  0.00    +0.000 C 
BRANCH  11  12
ATOM     12  N12 UNK     0      -5.012  -4.724  -0.558  0.00  0.00    +0.000 NA
ATOM     13  C39 UNK     0      -6.315  -4.212  -0.089  0.00  0.00    +0.000 C 
ATOM     14  C42 UNK     0      -7.454  -4.817  -0.937  0.00  0.00    +0.000 C 
ATOM     15  O5  UNK     0      -7.006  -5.884  -1.756  0.00  0.00    +0.000 OA
ATOM     16  C43 UNK     0      -6.287  -6.820  -0.977  0.00  0.00    +0.000 C 
ATOM     17  C40 UNK     0      -4.982  -6.196  -0.444  0.00  0.00    +0.000 C 
ENDBRANCH  11  12
ENDBRANCH   8  11
ENDBRANCH   6   7
BRANCH   6  18
ATOM     18  C32 UNK     0      -4.909   0.714   0.765  0.00  0.00    +0.000 C 
BRANCH  18  19
ATOM     19  C35 UNK     0      -5.095   2.036   0.005  0.00  0.00    +0.000 C 
BRANCH  19  20
ATOM     20  C44 UNK     0      -6.049   2.946   0.733  0.00  0.00    +0.000 A 
ATOM     21  C49 UNK     0      -5.563   3.979   1.554  0.00  0.00    +0.000 A 
ATOM     22  C51 UNK     0      -6.455   4.821   2.227  0.00  0.00    +0.000 A 
ATOM     23  C52 UNK     0      -7.834   4.633   2.093  0.00  0.00    +0.000 A 
ATOM     24  C50 UNK     0      -8.323   3.600   1.291  0.00  0.00    +0.000 A 
ATOM     25  C48 UNK     0      -7.436   2.758   0.612  0.00  0.00    +0.000 A 
ENDBRANCH  19  20
ENDBRANCH  18  19
ENDBRANCH   6  18
ENDBRANCH   4   6
ENDBRANCH   1   2
BRANCH   1  26
ATOM     26  C27 UNK     0       0.576   0.567  -0.695  0.00  0.00    +0.000 C 
ATOM     27  N9  UNK     0       1.824   0.928  -1.311  0.00  0.00    +0.000 N 
ATOM     28  H73 UNK     0       1.974   1.936  -1.547  0.00  0.00    +0.000 HD
ATOM     29  O4  UNK     0       0.380  -0.614  -0.305  0.00  0.00    +0.000 OA
BRANCH  27  30
ATOM     30  C21 UNK     0       2.965   0.008  -1.401  0.00  0.00    +0.000 C 
BRANCH  30  31
ATOM     31  C20 UNK     0       3.981   0.333  -0.337  0.00  0.00    +0.000 C 
ATOM     32  N8  UNK     0       4.795  -0.712   0.219  0.00  0.00    +0.000 N 
ATOM     33  H62 UNK     0       4.748  -1.669  -0.207  0.00  0.00    +0.000 HD
ATOM     34  O3  UNK     0       4.143   1.528   0.033  0.00  0.00    +0.000 OA
BRANCH  32  35
ATOM     35  C15 UNK     0       5.728  -0.467   1.324  0.00  0.00    +0.000 C 
BRANCH  35  36
ATOM     36  C16 UNK     0       5.841  -1.688   2.230  0.00  0.00    +0.000 C 
ATOM     37  O2  UNK     0       6.929  -1.996   2.696  0.00  0.00    +0.000 OA
BRANCH  36  38
ATOM     38  C13 UNK     0       4.610  -2.469   2.663  0.00  0.00    +0.000 C 
ATOM     39  O1  UNK     0       4.780  -3.071   3.929  0.00  0.00    +0.000 OA
ATOM     40  C14 UNK     0       4.746  -3.942   2.812  0.00  0.00    +0.000 C 
ATOM     41  C17 UNK     0       3.193  -1.905   2.490  0.00  0.00    +0.000 C 
ENDBRANCH  36  38
ENDBRANCH  35  36
BRANCH  35  42
ATOM     42  C18 UNK     0       7.083   0.063   0.780  0.00  0.00    +0.000 C 
BRANCH  42  43
ATOM     43  C19 UNK     0       7.646  -0.676  -0.463  0.00  0.00    +0.000 C 
ATOM     44  C23 UNK     0       8.071  -2.116  -0.153  0.00  0.00    +0.000 C 
ATOM     45  C22 UNK     0       8.838   0.103  -1.039  0.00  0.00    +0.000 C 
ENDBRANCH  42  43
ENDBRANCH  35  42
ENDBRANCH  32  35
ENDBRANCH  30  31
BRANCH  30  46
ATOM     46  C24 UNK     0       3.592   0.031  -2.811  0.00  0.00    +0.000 C 
BRANCH  46  47
ATOM     47  C29 UNK     0       4.059   1.400  -3.251  0.00  0.00    +0.000 A 
ATOM     48  C37 UNK     0       3.207   2.234  -3.997  0.00  0.00    +0.000 A 
ATOM     49  C45 UNK     0       3.638   3.503  -4.397  0.00  0.00    +0.000 A 
ATOM     50  C47 UNK     0       4.914   3.953  -4.048  0.00  0.00    +0.000 A 
ATOM     51  C46 UNK     0       5.764   3.133  -3.301  0.00  0.00    +0.000 A 
ATOM     52  C38 UNK     0       5.345   1.857  -2.914  0.00  0.00    +0.000 A 
ENDBRANCH  46  47
ENDBRANCH  30  46
ENDBRANCH  27  30
ENDBRANCH   1  26
BRANCH   1  53
ATOM     53  C26 UNK     0      -0.249   2.321   0.900  0.00  0.00    +0.000 C 
BRANCH  53  54
ATOM     54  C28 UNK     0      -1.358   3.319   1.305  0.00  0.00    +0.000 C 
ATOM     55  C33 UNK     0      -1.559   4.425   0.258  0.00  0.00    +0.000 C 
ATOM     56  C34 UNK     0      -1.032   3.942   2.669  0.00  0.00    +0.000 C 
ENDBRANCH  53  54
ENDBRANCH   1  53
TORSDOF 20
