REMARK  Name = C:\Users\Maximilian\Desktop\Conformers\converted_pdb\conformers_pdb\TAK_242_conf_34.pdb
REMARK  25 active torsions:
REMARK  status: ('A' for Active; 'I' for Inactive)
REMARK    1  A    between atoms: C25_1  and  N10_2
REMARK    2  A    between atoms: C25_1  and  C27_26
REMARK    3  A    between atoms: C25_1  and  C26_53
REMARK    4  A    between atoms: C31_4  and  C30_6
REMARK    5  A    between atoms: C30_6  and  C32_7
REMARK    6  A    between atoms: C30_6  and  N11_15
REMARK    7  A    between atoms: C32_7  and  C35_8
REMARK    8  A    between atoms: C35_8  and  C44_9
REMARK    9  A    between atoms: C41_16  and  C36_19
REMARK   10  A    between atoms: C36_19  and  N12_20
REMARK   11  A    between atoms: N9_27  and  C21_30
REMARK   12  A    between atoms: C21_30  and  C24_31
REMARK   13  A    between atoms: C21_30  and  C20_38
REMARK   14  A    between atoms: C24_31  and  C29_32
REMARK   15  A    between atoms: N8_39  and  C15_42
REMARK   16  A    between atoms: C15_42  and  C18_43
REMARK   17  A    between atoms: C15_42  and  C16_47
REMARK   18  A    between atoms: C18_43  and  C19_44
REMARK   19  A    between atoms: C19_44  and  C23_45
REMARK   20  A    between atoms: C19_44  and  C22_46
REMARK   21  A    between atoms: C16_47  and  C13_49
REMARK   22  A    between atoms: C13_49  and  C17_52
REMARK   23  A    between atoms: C26_53  and  C28_54
REMARK   24  A    between atoms: C28_54  and  C33_55
REMARK   25  A    between atoms: C28_54  and  C34_56
REMARK                            x       y       z     vdW  Elec       q    Type
REMARK                         _______ _______ _______ _____ _____    ______ ____
ROOT
ATOM      1  C25 UNK     0       0.809  -0.195   0.649  0.00  0.00    +0.000 C 
ENDROOT
BRANCH   1   2
ATOM      2  N10 UNK     0       1.810   0.876   0.670  0.00  0.00    +0.000 N 
ATOM      3  H77 UNK     0       1.501   1.872   0.712  0.00  0.00    +0.000 HD
ATOM      4  C31 UNK     0       3.219   0.600   0.606  0.00  0.00    +0.000 C 
ATOM      5  O6  UNK     0       3.627  -0.593   0.555  0.00  0.00    +0.000 OA
BRANCH   4   6
ATOM      6  C30 UNK     0       4.212   1.740   0.605  0.00  0.00    +0.000 C 
BRANCH   6   7
ATOM      7  N11 UNK     0       5.592   1.237   0.578  0.00  0.00    +0.000 N 
ATOM      8  C41 UNK     0       6.319   0.853   1.755  0.00  0.00    +0.000 C 
ATOM      9  O7  UNK     0       5.866   1.113   2.903  0.00  0.00    +0.000 OA
ATOM     10  H87 UNK     0       6.034   1.005  -0.344  0.00  0.00    +0.000 HD
BRANCH   8  11
ATOM     11  C36 UNK     0       7.645   0.169   1.620  0.00  0.00    +0.000 C 
BRANCH  11  12
ATOM     12  N12 UNK     0       7.488  -1.059   0.810  0.00  0.00    +0.000 NA
ATOM     13  C39 UNK     0       7.053  -2.218   1.623  0.00  0.00    +0.000 C 
ATOM     14  C42 UNK     0       8.243  -3.058   2.132  0.00  0.00    +0.000 C 
ATOM     15  O5  UNK     0       9.412  -2.270   2.223  0.00  0.00    +0.000 OA
ATOM     16  C43 UNK     0       9.847  -1.883   0.931  0.00  0.00    +0.000 C 
ATOM     17  C40 UNK     0       8.699  -1.375   0.028  0.00  0.00    +0.000 C 
ENDBRANCH  11  12
ENDBRANCH   8  11
ENDBRANCH   6   7
BRANCH   6  18
ATOM     18  C32 UNK     0       3.975   2.759  -0.541  0.00  0.00    +0.000 C 
BRANCH  18  19
ATOM     19  C35 UNK     0       3.608   2.170  -1.921  0.00  0.00    +0.000 C 
BRANCH  19  20
ATOM     20  C44 UNK     0       4.718   1.363  -2.536  0.00  0.00    +0.000 A 
ATOM     21  C49 UNK     0       4.628  -0.040  -2.598  0.00  0.00    +0.000 A 
ATOM     22  C51 UNK     0       5.677  -0.789  -3.134  0.00  0.00    +0.000 A 
ATOM     23  C52 UNK     0       6.831  -0.149  -3.599  0.00  0.00    +0.000 A 
ATOM     24  C50 UNK     0       6.927   1.245  -3.542  0.00  0.00    +0.000 A 
ATOM     25  C48 UNK     0       5.873   2.002  -3.018  0.00  0.00    +0.000 A 
ENDBRANCH  19  20
ENDBRANCH  18  19
ENDBRANCH   6  18
ENDBRANCH   4   6
ENDBRANCH   1   2
BRANCH   1  26
ATOM     26  C27 UNK     0      -0.546   0.307   0.200  0.00  0.00    +0.000 C 
ATOM     27  N9  UNK     0      -1.408  -0.565  -0.549  0.00  0.00    +0.000 N 
ATOM     28  H73 UNK     0      -1.052  -1.514  -0.801  0.00  0.00    +0.000 HD
ATOM     29  O4  UNK     0      -0.936   1.469   0.510  0.00  0.00    +0.000 OA
BRANCH  27  30
ATOM     30  C21 UNK     0      -2.730  -0.170  -1.047  0.00  0.00    +0.000 C 
BRANCH  30  31
ATOM     31  C20 UNK     0      -3.781  -1.105  -0.502  0.00  0.00    +0.000 C 
ATOM     32  N8  UNK     0      -5.090  -0.604  -0.182  0.00  0.00    +0.000 N 
ATOM     33  H62 UNK     0      -5.311   0.382  -0.439  0.00  0.00    +0.000 HD
ATOM     34  O3  UNK     0      -3.519  -2.335  -0.362  0.00  0.00    +0.000 OA
BRANCH  32  35
ATOM     35  C15 UNK     0      -6.105  -1.416   0.501  0.00  0.00    +0.000 C 
BRANCH  35  36
ATOM     36  C16 UNK     0      -6.394  -0.927   1.914  0.00  0.00    +0.000 C 
ATOM     37  O2  UNK     0      -7.011  -1.665   2.670  0.00  0.00    +0.000 OA
BRANCH  36  38
ATOM     38  C13 UNK     0      -5.911   0.406   2.445  0.00  0.00    +0.000 C 
ATOM     39  O1  UNK     0      -6.541   0.751   3.656  0.00  0.00    +0.000 OA
ATOM     40  C14 UNK     0      -6.892   1.517   2.526  0.00  0.00    +0.000 C 
ATOM     41  C17 UNK     0      -4.419   0.760   2.457  0.00  0.00    +0.000 C 
ENDBRANCH  36  38
ENDBRANCH  35  36
BRANCH  35  42
ATOM     42  C18 UNK     0      -7.374  -1.593  -0.377  0.00  0.00    +0.000 C 
BRANCH  42  43
ATOM     43  C19 UNK     0      -8.490  -0.520  -0.252  0.00  0.00    +0.000 C 
ATOM     44  C23 UNK     0      -9.757  -0.998  -0.980  0.00  0.00    +0.000 C 
ATOM     45  C22 UNK     0      -8.068   0.843  -0.816  0.00  0.00    +0.000 C 
ENDBRANCH  42  43
ENDBRANCH  35  42
ENDBRANCH  32  35
ENDBRANCH  30  31
BRANCH  30  46
ATOM     46  C24 UNK     0      -2.719  -0.203  -2.583  0.00  0.00    +0.000 C 
BRANCH  46  47
ATOM     47  C29 UNK     0      -4.001   0.322  -3.178  0.00  0.00    +0.000 A 
ATOM     48  C37 UNK     0      -4.232   1.707  -3.240  0.00  0.00    +0.000 A 
ATOM     49  C45 UNK     0      -5.415   2.204  -3.803  0.00  0.00    +0.000 A 
ATOM     50  C47 UNK     0      -6.372   1.319  -4.309  0.00  0.00    +0.000 A 
ATOM     51  C46 UNK     0      -6.160  -0.062  -4.238  0.00  0.00    +0.000 A 
ATOM     52  C38 UNK     0      -4.985  -0.559  -3.664  0.00  0.00    +0.000 A 
ENDBRANCH  46  47
ENDBRANCH  30  46
ENDBRANCH  27  30
ENDBRANCH   1  26
BRANCH   1  53
ATOM     53  C26 UNK     0       0.724  -0.938   2.004  0.00  0.00    +0.000 C 
BRANCH  53  54
ATOM     54  C28 UNK     0       0.261  -0.079   3.213  0.00  0.00    +0.000 C 
ATOM     55  C33 UNK     0       1.405   0.780   3.781  0.00  0.00    +0.000 C 
ATOM     56  C34 UNK     0      -0.288  -0.991   4.319  0.00  0.00    +0.000 C 
ENDBRANCH  53  54
ENDBRANCH   1  53
TORSDOF 20
