REMARK  Name = C:\Users\Maximilian\Desktop\Conformers\converted_pdb\conformers_pdb\TAK_242_conf_17.pdb
REMARK  25 active torsions:
REMARK  status: ('A' for Active; 'I' for Inactive)
REMARK    1  A    between atoms: C25_1  and  N10_2
REMARK    2  A    between atoms: C25_1  and  C27_26
REMARK    3  A    between atoms: C25_1  and  C26_53
REMARK    4  A    between atoms: C31_4  and  C30_6
REMARK    5  A    between atoms: C30_6  and  C32_7
REMARK    6  A    between atoms: C30_6  and  N11_15
REMARK    7  A    between atoms: C32_7  and  C35_8
REMARK    8  A    between atoms: C35_8  and  C44_9
REMARK    9  A    between atoms: C41_16  and  C36_19
REMARK   10  A    between atoms: C36_19  and  N12_20
REMARK   11  A    between atoms: N9_27  and  C21_30
REMARK   12  A    between atoms: C21_30  and  C24_31
REMARK   13  A    between atoms: C21_30  and  C20_38
REMARK   14  A    between atoms: C24_31  and  C29_32
REMARK   15  A    between atoms: N8_39  and  C15_42
REMARK   16  A    between atoms: C15_42  and  C18_43
REMARK   17  A    between atoms: C15_42  and  C16_47
REMARK   18  A    between atoms: C18_43  and  C19_44
REMARK   19  A    between atoms: C19_44  and  C23_45
REMARK   20  A    between atoms: C19_44  and  C22_46
REMARK   21  A    between atoms: C16_47  and  C13_49
REMARK   22  A    between atoms: C13_49  and  C17_52
REMARK   23  A    between atoms: C26_53  and  C28_54
REMARK   24  A    between atoms: C28_54  and  C33_55
REMARK   25  A    between atoms: C28_54  and  C34_56
REMARK                            x       y       z     vdW  Elec       q    Type
REMARK                         _______ _______ _______ _____ _____    ______ ____
ROOT
ATOM      1  C25 UNK     0       0.639   1.729  -3.539  0.00  0.00    +0.000 C 
ENDROOT
BRANCH   1   2
ATOM      2  N10 UNK     0       1.479   1.620  -2.337  0.00  0.00    +0.000 N 
ATOM      3  H77 UNK     0       1.817   2.513  -1.920  0.00  0.00    +0.000 HD
ATOM      4  C31 UNK     0       1.883   0.397  -1.696  0.00  0.00    +0.000 C 
ATOM      5  O6  UNK     0       1.424  -0.711  -2.075  0.00  0.00    +0.000 OA
BRANCH   4   6
ATOM      6  C30 UNK     0       2.915   0.428  -0.597  0.00  0.00    +0.000 C 
BRANCH   6   7
ATOM      7  N11 UNK     0       2.615  -0.611   0.393  0.00  0.00    +0.000 N 
ATOM      8  C41 UNK     0       1.704  -0.413   1.484  0.00  0.00    +0.000 C 
ATOM      9  O7  UNK     0       0.962   0.606   1.518  0.00  0.00    +0.000 OA
ATOM     10  H87 UNK     0       3.099  -1.536   0.316  0.00  0.00    +0.000 HD
BRANCH   8  11
ATOM     11  C36 UNK     0       1.668  -1.395   2.621  0.00  0.00    +0.000 C 
BRANCH  11  12
ATOM     12  N12 UNK     0       2.350  -0.840   3.810  0.00  0.00    +0.000 NA
ATOM     13  C39 UNK     0       3.824  -0.752   3.633  0.00  0.00    +0.000 C 
ATOM     14  C42 UNK     0       4.578  -1.812   4.460  0.00  0.00    +0.000 C 
ATOM     15  O5  UNK     0       4.314  -1.724   5.852  0.00  0.00    +0.000 OA
ATOM     16  C43 UNK     0       2.978  -1.346   6.158  0.00  0.00    +0.000 C 
ATOM     17  C40 UNK     0       1.974  -1.602   5.021  0.00  0.00    +0.000 C 
ENDBRANCH  11  12
ENDBRANCH   8  11
ENDBRANCH   6   7
BRANCH   6  18
ATOM     18  C32 UNK     0       4.329   0.196  -1.178  0.00  0.00    +0.000 C 
BRANCH  18  19
ATOM     19  C35 UNK     0       4.899   1.407  -1.941  0.00  0.00    +0.000 C 
BRANCH  19  20
ATOM     20  C44 UNK     0       5.256   2.548  -1.020  0.00  0.00    +0.000 A 
ATOM     21  C49 UNK     0       4.531   3.751  -1.053  0.00  0.00    +0.000 A 
ATOM     22  C51 UNK     0       4.868   4.802  -0.195  0.00  0.00    +0.000 A 
ATOM     23  C52 UNK     0       5.935   4.665   0.696  0.00  0.00    +0.000 A 
ATOM     24  C50 UNK     0       6.672   3.478   0.726  0.00  0.00    +0.000 A 
ATOM     25  C48 UNK     0       6.337   2.424  -0.129  0.00  0.00    +0.000 A 
ENDBRANCH  19  20
ENDBRANCH  18  19
ENDBRANCH   6  18
ENDBRANCH   4   6
ENDBRANCH   1   2
BRANCH   1  26
ATOM     26  C27 UNK     0      -0.815   1.654  -3.153  0.00  0.00    +0.000 C 
ATOM     27  N9  UNK     0      -1.413   0.429  -2.703  0.00  0.00    +0.000 N 
ATOM     28  H73 UNK     0      -0.918  -0.473  -2.875  0.00  0.00    +0.000 HD
ATOM     29  O4  UNK     0      -1.507   2.707  -3.205  0.00  0.00    +0.000 OA
BRANCH  27  30
ATOM     30  C21 UNK     0      -2.624   0.407  -1.876  0.00  0.00    +0.000 C 
BRANCH  30  31
ATOM     31  C20 UNK     0      -2.287  -0.033  -0.473  0.00  0.00    +0.000 C 
ATOM     32  N8  UNK     0      -2.956   0.573   0.642  0.00  0.00    +0.000 N 
ATOM     33  H62 UNK     0      -3.675   1.304   0.443  0.00  0.00    +0.000 HD
ATOM     34  O3  UNK     0      -1.451  -0.958  -0.288  0.00  0.00    +0.000 OA
BRANCH  32  35
ATOM     35  C15 UNK     0      -2.842   0.046   2.008  0.00  0.00    +0.000 C 
BRANCH  35  36
ATOM     36  C16 UNK     0      -2.973   1.149   3.046  0.00  0.00    +0.000 C 
ATOM     37  O2  UNK     0      -3.215   2.297   2.703  0.00  0.00    +0.000 OA
BRANCH  36  38
ATOM     38  C13 UNK     0      -2.769   0.866   4.511  0.00  0.00    +0.000 C 
ATOM     39  O1  UNK     0      -1.696   1.613   5.040  0.00  0.00    +0.000 OA
ATOM     40  C14 UNK     0      -1.510   0.216   4.948  0.00  0.00    +0.000 C 
ATOM     41  C17 UNK     0      -3.968   0.847   5.455  0.00  0.00    +0.000 C 
ENDBRANCH  36  38
ENDBRANCH  35  36
BRANCH  35  42
ATOM     42  C18 UNK     0      -3.838  -1.118   2.236  0.00  0.00    +0.000 C 
BRANCH  42  43
ATOM     43  C19 UNK     0      -5.267  -0.911   1.668  0.00  0.00    +0.000 C 
ATOM     44  C23 UNK     0      -6.020   0.230   2.365  0.00  0.00    +0.000 C 
ATOM     45  C22 UNK     0      -6.070  -2.213   1.792  0.00  0.00    +0.000 C 
ENDBRANCH  42  43
ENDBRANCH  35  42
ENDBRANCH  32  35
ENDBRANCH  30  31
BRANCH  30  46
ATOM     46  C24 UNK     0      -3.720  -0.470  -2.514  0.00  0.00    +0.000 C 
BRANCH  46  47
ATOM     47  C29 UNK     0      -3.316  -1.912  -2.700  0.00  0.00    +0.000 A 
ATOM     48  C37 UNK     0      -2.718  -2.333  -3.901  0.00  0.00    +0.000 A 
ATOM     49  C45 UNK     0      -2.320  -3.663  -4.062  0.00  0.00    +0.000 A 
ATOM     50  C47 UNK     0      -2.523  -4.585  -3.030  0.00  0.00    +0.000 A 
ATOM     51  C46 UNK     0      -3.119  -4.176  -1.834  0.00  0.00    +0.000 A 
ATOM     52  C38 UNK     0      -3.516  -2.846  -1.670  0.00  0.00    +0.000 A 
ENDBRANCH  46  47
ENDBRANCH  30  46
ENDBRANCH  27  30
ENDBRANCH   1  26
BRANCH   1  53
ATOM     53  C26 UNK     0       1.066   0.732  -4.646  0.00  0.00    +0.000 C 
BRANCH  53  54
ATOM     54  C28 UNK     0       0.581   1.123  -6.068  0.00  0.00    +0.000 C 
ATOM     55  C33 UNK     0      -0.881   0.713  -6.309  0.00  0.00    +0.000 C 
ATOM     56  C34 UNK     0       1.476   0.469  -7.131  0.00  0.00    +0.000 C 
ENDBRANCH  53  54
ENDBRANCH   1  53
TORSDOF 20
