REMARK  Name = C:\Users\Maximilian\Desktop\Conformers\converted_pdb\conformers_pdb\TAK_242_conf_52.pdb
REMARK  25 active torsions:
REMARK  status: ('A' for Active; 'I' for Inactive)
REMARK    1  A    between atoms: C25_1  and  N10_2
REMARK    2  A    between atoms: C25_1  and  C27_26
REMARK    3  A    between atoms: C25_1  and  C26_53
REMARK    4  A    between atoms: C31_4  and  C30_6
REMARK    5  A    between atoms: C30_6  and  C32_7
REMARK    6  A    between atoms: C30_6  and  N11_15
REMARK    7  A    between atoms: C32_7  and  C35_8
REMARK    8  A    between atoms: C35_8  and  C44_9
REMARK    9  A    between atoms: C41_16  and  C36_19
REMARK   10  A    between atoms: C36_19  and  N12_20
REMARK   11  A    between atoms: N9_27  and  C21_30
REMARK   12  A    between atoms: C21_30  and  C24_31
REMARK   13  A    between atoms: C21_30  and  C20_38
REMARK   14  A    between atoms: C24_31  and  C29_32
REMARK   15  A    between atoms: N8_39  and  C15_42
REMARK   16  A    between atoms: C15_42  and  C18_43
REMARK   17  A    between atoms: C15_42  and  C16_47
REMARK   18  A    between atoms: C18_43  and  C19_44
REMARK   19  A    between atoms: C19_44  and  C23_45
REMARK   20  A    between atoms: C19_44  and  C22_46
REMARK   21  A    between atoms: C16_47  and  C13_49
REMARK   22  A    between atoms: C13_49  and  C17_52
REMARK   23  A    between atoms: C26_53  and  C28_54
REMARK   24  A    between atoms: C28_54  and  C33_55
REMARK   25  A    between atoms: C28_54  and  C34_56
REMARK                            x       y       z     vdW  Elec       q    Type
REMARK                         _______ _______ _______ _____ _____    ______ ____
ROOT
ATOM      1  C25 UNK     0       0.409   0.676  -0.827  0.00  0.00    +0.000 C 
ENDROOT
BRANCH   1   2
ATOM      2  N10 UNK     0       1.755   0.294  -0.388  0.00  0.00    +0.000 N 
ATOM      3  H77 UNK     0       2.134  -0.618  -0.727  0.00  0.00    +0.000 HD
ATOM      4  C31 UNK     0       2.478   1.032   0.614  0.00  0.00    +0.000 C 
ATOM      5  O6  UNK     0       1.900   1.961   1.242  0.00  0.00    +0.000 OA
BRANCH   4   6
ATOM      6  C30 UNK     0       3.917   0.707   0.956  0.00  0.00    +0.000 C 
BRANCH   6   7
ATOM      7  N11 UNK     0       4.427  -0.387   0.122  0.00  0.00    +0.000 N 
ATOM      8  C41 UNK     0       4.378  -1.762   0.532  0.00  0.00    +0.000 C 
ATOM      9  O7  UNK     0       3.823  -2.086   1.617  0.00  0.00    +0.000 OA
ATOM     10  H87 UNK     0       4.754  -0.166  -0.846  0.00  0.00    +0.000 HD
BRANCH   8  11
ATOM     11  C36 UNK     0       4.979  -2.830  -0.338  0.00  0.00    +0.000 C 
BRANCH  11  12
ATOM     12  N12 UNK     0       6.024  -3.585   0.388  0.00  0.00    +0.000 NA
ATOM     13  C39 UNK     0       6.473  -4.767  -0.388  0.00  0.00    +0.000 C 
ATOM     14  C42 UNK     0       7.845  -4.541  -1.046  0.00  0.00    +0.000 C 
ATOM     15  O5  UNK     0       8.876  -4.251  -0.112  0.00  0.00    +0.000 OA
ATOM     16  C43 UNK     0       8.428  -3.529   1.028  0.00  0.00    +0.000 C 
ATOM     17  C40 UNK     0       7.151  -2.707   0.785  0.00  0.00    +0.000 C 
ENDBRANCH  11  12
ENDBRANCH   8  11
ENDBRANCH   6   7
BRANCH   6  18
ATOM     18  C32 UNK     0       4.806   1.955   0.782  0.00  0.00    +0.000 C 
BRANCH  18  19
ATOM     19  C35 UNK     0       6.254   1.688   1.225  0.00  0.00    +0.000 C 
BRANCH  19  20
ATOM     20  C44 UNK     0       7.100   2.917   1.034  0.00  0.00    +0.000 A 
ATOM     21  C49 UNK     0       7.238   3.855   2.070  0.00  0.00    +0.000 A 
ATOM     22  C51 UNK     0       8.001   5.011   1.876  0.00  0.00    +0.000 A 
ATOM     23  C52 UNK     0       8.618   5.244   0.643  0.00  0.00    +0.000 A 
ATOM     24  C50 UNK     0       8.475   4.321  -0.397  0.00  0.00    +0.000 A 
ATOM     25  C48 UNK     0       7.715   3.163  -0.206  0.00  0.00    +0.000 A 
ENDBRANCH  19  20
ENDBRANCH  18  19
ENDBRANCH   6  18
ENDBRANCH   4   6
ENDBRANCH   1   2
BRANCH   1  26
ATOM     26  C27 UNK     0      -0.624  -0.007   0.036  0.00  0.00    +0.000 C 
ATOM     27  N9  UNK     0      -1.957   0.521   0.099  0.00  0.00    +0.000 N 
ATOM     28  H73 UNK     0      -2.188   1.344  -0.501  0.00  0.00    +0.000 HD
ATOM     29  O4  UNK     0      -0.328  -1.064   0.659  0.00  0.00    +0.000 OA
BRANCH  27  30
ATOM     30  C21 UNK     0      -2.967   0.038   1.051  0.00  0.00    +0.000 C 
BRANCH  30  31
ATOM     31  C20 UNK     0      -4.264  -0.281   0.346  0.00  0.00    +0.000 C 
ATOM     32  N8  UNK     0      -5.295  -1.004   1.036  0.00  0.00    +0.000 N 
ATOM     33  H62 UNK     0      -5.148  -1.242   2.044  0.00  0.00    +0.000 HD
ATOM     34  O3  UNK     0      -4.446   0.092  -0.848  0.00  0.00    +0.000 OA
BRANCH  32  35
ATOM     35  C15 UNK     0      -6.562  -1.366   0.393  0.00  0.00    +0.000 C 
BRANCH  35  36
ATOM     36  C16 UNK     0      -7.124  -2.590   1.079  0.00  0.00    +0.000 C 
ATOM     37  O2  UNK     0      -7.780  -2.476   2.105  0.00  0.00    +0.000 OA
BRANCH  36  38
ATOM     38  C13 UNK     0      -6.814  -3.961   0.539  0.00  0.00    +0.000 C 
ATOM     39  O1  UNK     0      -6.896  -4.967   1.522  0.00  0.00    +0.000 OA
ATOM     40  C14 UNK     0      -5.601  -4.637   1.057  0.00  0.00    +0.000 C 
ATOM     41  C17 UNK     0      -7.380  -4.411  -0.807  0.00  0.00    +0.000 C 
ENDBRANCH  36  38
ENDBRANCH  35  36
BRANCH  35  42
ATOM     42  C18 UNK     0      -7.522  -0.148   0.423  0.00  0.00    +0.000 C 
BRANCH  42  43
ATOM     43  C19 UNK     0      -8.811  -0.249  -0.435  0.00  0.00    +0.000 C 
ATOM     44  C23 UNK     0      -9.864  -1.193   0.158  0.00  0.00    +0.000 C 
ATOM     45  C22 UNK     0      -8.531  -0.587  -1.905  0.00  0.00    +0.000 C 
ENDBRANCH  42  43
ENDBRANCH  35  42
ENDBRANCH  32  35
ENDBRANCH  30  31
BRANCH  30  46
ATOM     46  C24 UNK     0      -3.162   1.061   2.188  0.00  0.00    +0.000 C 
BRANCH  46  47
ATOM     47  C29 UNK     0      -3.741   2.374   1.717  0.00  0.00    +0.000 A 
ATOM     48  C37 UNK     0      -5.133   2.574   1.708  0.00  0.00    +0.000 A 
ATOM     49  C45 UNK     0      -5.670   3.775   1.235  0.00  0.00    +0.000 A 
ATOM     50  C47 UNK     0      -4.824   4.786   0.770  0.00  0.00    +0.000 A 
ATOM     51  C46 UNK     0      -3.439   4.599   0.783  0.00  0.00    +0.000 A 
ATOM     52  C38 UNK     0      -2.897   3.400   1.256  0.00  0.00    +0.000 A 
ENDBRANCH  46  47
ENDBRANCH  30  46
ENDBRANCH  27  30
ENDBRANCH   1  26
BRANCH   1  53
ATOM     53  C26 UNK     0       0.190   0.297  -2.312  0.00  0.00    +0.000 C 
BRANCH  53  54
ATOM     54  C28 UNK     0       0.972   1.150  -3.347  0.00  0.00    +0.000 C 
ATOM     55  C33 UNK     0       2.496   0.999  -3.235  0.00  0.00    +0.000 C 
ATOM     56  C34 UNK     0       0.563   2.631  -3.320  0.00  0.00    +0.000 C 
ENDBRANCH  53  54
ENDBRANCH   1  53
TORSDOF 20
