REMARK  Name = C:\Users\Maximilian\Desktop\Conformers\converted_pdb\conformers_pdb\TAK_242_conf_100.pdb
REMARK  25 active torsions:
REMARK  status: ('A' for Active; 'I' for Inactive)
REMARK    1  A    between atoms: C25_1  and  N10_2
REMARK    2  A    between atoms: C25_1  and  C27_26
REMARK    3  A    between atoms: C25_1  and  C26_53
REMARK    4  A    between atoms: C31_4  and  C30_6
REMARK    5  A    between atoms: C30_6  and  C32_7
REMARK    6  A    between atoms: C30_6  and  N11_15
REMARK    7  A    between atoms: C32_7  and  C35_8
REMARK    8  A    between atoms: C35_8  and  C44_9
REMARK    9  A    between atoms: C41_16  and  C36_19
REMARK   10  A    between atoms: C36_19  and  N12_20
REMARK   11  A    between atoms: N9_27  and  C21_30
REMARK   12  A    between atoms: C21_30  and  C24_31
REMARK   13  A    between atoms: C21_30  and  C20_38
REMARK   14  A    between atoms: C24_31  and  C29_32
REMARK   15  A    between atoms: N8_39  and  C15_42
REMARK   16  A    between atoms: C15_42  and  C18_43
REMARK   17  A    between atoms: C15_42  and  C16_47
REMARK   18  A    between atoms: C18_43  and  C19_44
REMARK   19  A    between atoms: C19_44  and  C23_45
REMARK   20  A    between atoms: C19_44  and  C22_46
REMARK   21  A    between atoms: C16_47  and  C13_49
REMARK   22  A    between atoms: C13_49  and  C17_52
REMARK   23  A    between atoms: C26_53  and  C28_54
REMARK   24  A    between atoms: C28_54  and  C33_55
REMARK   25  A    between atoms: C28_54  and  C34_56
REMARK                            x       y       z     vdW  Elec       q    Type
REMARK                         _______ _______ _______ _____ _____    ______ ____
ROOT
ATOM      1  C25 UNK     0       0.116   2.079  -1.207  0.00  0.00    +0.000 C 
ENDROOT
BRANCH   1   2
ATOM      2  N10 UNK     0       1.230   1.738  -0.306  0.00  0.00    +0.000 N 
ATOM      3  H77 UNK     0       1.198   2.145   0.654  0.00  0.00    +0.000 HD
ATOM      4  C31 UNK     0       2.312   0.846  -0.632  0.00  0.00    +0.000 C 
ATOM      5  O6  UNK     0       2.364   0.302  -1.772  0.00  0.00    +0.000 OA
BRANCH   4   6
ATOM      6  C30 UNK     0       3.368   0.523   0.402  0.00  0.00    +0.000 C 
BRANCH   6   7
ATOM      7  N11 UNK     0       4.332  -0.444  -0.139  0.00  0.00    +0.000 N 
ATOM      8  C41 UNK     0       4.733  -1.632   0.561  0.00  0.00    +0.000 C 
ATOM      9  O7  UNK     0       4.136  -1.984   1.618  0.00  0.00    +0.000 OA
ATOM     10  H87 UNK     0       4.855  -0.183  -1.008  0.00  0.00    +0.000 HD
BRANCH   8  11
ATOM     11  C36 UNK     0       5.931  -2.406   0.087  0.00  0.00    +0.000 C 
BRANCH  11  12
ATOM     12  N12 UNK     0       5.812  -3.842   0.411  0.00  0.00    +0.000 NA
ATOM     13  C39 UNK     0       4.819  -4.505  -0.462  0.00  0.00    +0.000 C 
ATOM     14  C42 UNK     0       4.902  -6.039  -0.337  0.00  0.00    +0.000 C 
ATOM     15  O5  UNK     0       5.652  -6.412   0.800  0.00  0.00    +0.000 OA
ATOM     16  C43 UNK     0       7.000  -6.003   0.637  0.00  0.00    +0.000 C 
ATOM     17  C40 UNK     0       7.120  -4.506   0.282  0.00  0.00    +0.000 C 
ENDBRANCH  11  12
ENDBRANCH   8  11
ENDBRANCH   6   7
BRANCH   6  18
ATOM     18  C32 UNK     0       4.107   1.795   0.861  0.00  0.00    +0.000 C 
BRANCH  18  19
ATOM     19  C35 UNK     0       5.100   1.494   1.995  0.00  0.00    +0.000 C 
BRANCH  19  20
ATOM     20  C44 UNK     0       5.681   2.764   2.552  0.00  0.00    +0.000 A 
ATOM     21  C49 UNK     0       6.897   3.268   2.061  0.00  0.00    +0.000 A 
ATOM     22  C51 UNK     0       7.424   4.457   2.575  0.00  0.00    +0.000 A 
ATOM     23  C52 UNK     0       6.735   5.159   3.566  0.00  0.00    +0.000 A 
ATOM     24  C50 UNK     0       5.514   4.676   4.041  0.00  0.00    +0.000 A 
ATOM     25  C48 UNK     0       4.985   3.485   3.536  0.00  0.00    +0.000 A 
ENDBRANCH  19  20
ENDBRANCH  18  19
ENDBRANCH   6  18
ENDBRANCH   4   6
ENDBRANCH   1   2
BRANCH   1  26
ATOM     26  C27 UNK     0      -0.854   0.930  -1.294  0.00  0.00    +0.000 C 
ATOM     27  N9  UNK     0      -2.263   1.182  -1.438  0.00  0.00    +0.000 N 
ATOM     28  H73 UNK     0      -2.568   2.168  -1.599  0.00  0.00    +0.000 HD
ATOM     29  O4  UNK     0      -0.429  -0.253  -1.206  0.00  0.00    +0.000 OA
BRANCH  27  30
ATOM     30  C21 UNK     0      -3.322   0.183  -1.217  0.00  0.00    +0.000 C 
BRANCH  30  31
ATOM     31  C20 UNK     0      -3.429  -0.177   0.246  0.00  0.00    +0.000 C 
ATOM     32  N8  UNK     0      -4.597  -0.851   0.737  0.00  0.00    +0.000 N 
ATOM     33  H62 UNK     0      -5.276  -1.239   0.044  0.00  0.00    +0.000 HD
ATOM     34  O3  UNK     0      -2.495   0.118   1.041  0.00  0.00    +0.000 OA
BRANCH  32  35
ATOM     35  C15 UNK     0      -4.942  -0.872   2.164  0.00  0.00    +0.000 C 
BRANCH  35  36
ATOM     36  C16 UNK     0      -5.580   0.451   2.553  0.00  0.00    +0.000 C 
ATOM     37  O2  UNK     0      -5.068   1.114   3.447  0.00  0.00    +0.000 OA
BRANCH  36  38
ATOM     38  C13 UNK     0      -6.800   0.997   1.842  0.00  0.00    +0.000 C 
ATOM     39  O1  UNK     0      -7.435   2.012   2.590  0.00  0.00    +0.000 OA
ATOM     40  C14 UNK     0      -8.131   0.792   2.463  0.00  0.00    +0.000 C 
ATOM     41  C17 UNK     0      -6.734   1.366   0.360  0.00  0.00    +0.000 C 
ENDBRANCH  36  38
ENDBRANCH  35  36
BRANCH  35  42
ATOM     42  C18 UNK     0      -5.852  -2.093   2.468  0.00  0.00    +0.000 C 
BRANCH  42  43
ATOM     43  C19 UNK     0      -5.848  -2.617   3.929  0.00  0.00    +0.000 C 
ATOM     44  C23 UNK     0      -6.640  -1.722   4.890  0.00  0.00    +0.000 C 
ATOM     45  C22 UNK     0      -4.438  -2.899   4.478  0.00  0.00    +0.000 C 
ENDBRANCH  42  43
ENDBRANCH  35  42
ENDBRANCH  32  35
ENDBRANCH  30  31
BRANCH  30  46
ATOM     46  C24 UNK     0      -3.160  -1.075  -2.100  0.00  0.00    +0.000 C 
BRANCH  46  47
ATOM     47  C29 UNK     0      -2.939  -0.726  -3.552  0.00  0.00    +0.000 A 
ATOM     48  C37 UNK     0      -3.969  -0.137  -4.304  0.00  0.00    +0.000 A 
ATOM     49  C45 UNK     0      -3.755   0.208  -5.642  0.00  0.00    +0.000 A 
ATOM     50  C47 UNK     0      -2.518  -0.047  -6.241  0.00  0.00    +0.000 A 
ATOM     51  C46 UNK     0      -1.497  -0.655  -5.504  0.00  0.00    +0.000 A 
ATOM     52  C38 UNK     0      -1.704  -0.992  -4.165  0.00  0.00    +0.000 A 
ENDBRANCH  46  47
ENDBRANCH  30  46
ENDBRANCH  27  30
ENDBRANCH   1  26
BRANCH   1  53
ATOM     53  C26 UNK     0       0.629   2.548  -2.594  0.00  0.00    +0.000 C 
BRANCH  53  54
ATOM     54  C28 UNK     0      -0.338   3.511  -3.338  0.00  0.00    +0.000 C 
ATOM     55  C33 UNK     0      -1.197   2.768  -4.371  0.00  0.00    +0.000 C 
ATOM     56  C34 UNK     0       0.450   4.628  -4.038  0.00  0.00    +0.000 C 
ENDBRANCH  53  54
ENDBRANCH   1  53
TORSDOF 20
