REMARK  Name = C:\Users\Maximilian\Desktop\Conformers\converted_pdb\conformers_pdb\TAK_242_conf_94.pdb
REMARK  25 active torsions:
REMARK  status: ('A' for Active; 'I' for Inactive)
REMARK    1  A    between atoms: C25_1  and  N10_2
REMARK    2  A    between atoms: C25_1  and  C27_26
REMARK    3  A    between atoms: C25_1  and  C26_53
REMARK    4  A    between atoms: C31_4  and  C30_6
REMARK    5  A    between atoms: C30_6  and  C32_7
REMARK    6  A    between atoms: C30_6  and  N11_15
REMARK    7  A    between atoms: C32_7  and  C35_8
REMARK    8  A    between atoms: C35_8  and  C44_9
REMARK    9  A    between atoms: C41_16  and  C36_19
REMARK   10  A    between atoms: C36_19  and  N12_20
REMARK   11  A    between atoms: N9_27  and  C21_30
REMARK   12  A    between atoms: C21_30  and  C24_31
REMARK   13  A    between atoms: C21_30  and  C20_38
REMARK   14  A    between atoms: C24_31  and  C29_32
REMARK   15  A    between atoms: N8_39  and  C15_42
REMARK   16  A    between atoms: C15_42  and  C18_43
REMARK   17  A    between atoms: C15_42  and  C16_47
REMARK   18  A    between atoms: C18_43  and  C19_44
REMARK   19  A    between atoms: C19_44  and  C23_45
REMARK   20  A    between atoms: C19_44  and  C22_46
REMARK   21  A    between atoms: C16_47  and  C13_49
REMARK   22  A    between atoms: C13_49  and  C17_52
REMARK   23  A    between atoms: C26_53  and  C28_54
REMARK   24  A    between atoms: C28_54  and  C33_55
REMARK   25  A    between atoms: C28_54  and  C34_56
REMARK                            x       y       z     vdW  Elec       q    Type
REMARK                         _______ _______ _______ _____ _____    ______ ____
ROOT
ATOM      1  C25 UNK     0      -0.166  -2.423  -1.188  0.00  0.00    +0.000 C 
ENDROOT
BRANCH   1   2
ATOM      2  N10 UNK     0       0.923  -1.479  -1.491  0.00  0.00    +0.000 N 
ATOM      3  H77 UNK     0       1.111  -1.293  -2.503  0.00  0.00    +0.000 HD
ATOM      4  C31 UNK     0       1.756  -0.803  -0.528  0.00  0.00    +0.000 C 
ATOM      5  O6  UNK     0       1.598  -1.001   0.706  0.00  0.00    +0.000 OA
BRANCH   4   6
ATOM      6  C30 UNK     0       2.855   0.114  -1.008  0.00  0.00    +0.000 C 
BRANCH   6   7
ATOM      7  N11 UNK     0       3.228   1.102   0.019  0.00  0.00    +0.000 N 
ATOM      8  C41 UNK     0       3.909   0.802   1.252  0.00  0.00    +0.000 C 
ATOM      9  O7  UNK     0       4.144  -0.391   1.585  0.00  0.00    +0.000 OA
ATOM     10  H87 UNK     0       2.995   2.102  -0.179  0.00  0.00    +0.000 HD
BRANCH   8  11
ATOM     11  C36 UNK     0       4.293   1.915   2.186  0.00  0.00    +0.000 C 
BRANCH  11  12
ATOM     12  N12 UNK     0       5.614   1.657   2.801  0.00  0.00    +0.000 NA
ATOM     13  C39 UNK     0       6.736   1.818   1.849  0.00  0.00    +0.000 C 
ATOM     14  C42 UNK     0       7.094   3.297   1.620  0.00  0.00    +0.000 C 
ATOM     15  O5  UNK     0       7.363   3.949   2.844  0.00  0.00    +0.000 OA
ATOM     16  C43 UNK     0       6.211   3.921   3.659  0.00  0.00    +0.000 C 
ATOM     17  C40 UNK     0       5.835   2.474   4.012  0.00  0.00    +0.000 C 
ENDBRANCH  11  12
ENDBRANCH   8  11
ENDBRANCH   6   7
BRANCH   6  18
ATOM     18  C32 UNK     0       4.068  -0.694  -1.509  0.00  0.00    +0.000 C 
BRANCH  18  19
ATOM     19  C35 UNK     0       5.153   0.211  -2.106  0.00  0.00    +0.000 C 
BRANCH  19  20
ATOM     20  C44 UNK     0       6.318  -0.613  -2.583  0.00  0.00    +0.000 A 
ATOM     21  C49 UNK     0       7.357  -0.953  -1.700  0.00  0.00    +0.000 A 
ATOM     22  C51 UNK     0       8.415  -1.757  -2.134  0.00  0.00    +0.000 A 
ATOM     23  C52 UNK     0       8.441  -2.232  -3.449  0.00  0.00    +0.000 A 
ATOM     24  C50 UNK     0       7.401  -1.912  -4.328  0.00  0.00    +0.000 A 
ATOM     25  C48 UNK     0       6.339  -1.111  -3.897  0.00  0.00    +0.000 A 
ENDBRANCH  19  20
ENDBRANCH  18  19
ENDBRANCH   6  18
ENDBRANCH   4   6
ENDBRANCH   1   2
BRANCH   1  26
ATOM     26  C27 UNK     0      -1.465  -1.691  -0.945  0.00  0.00    +0.000 C 
ATOM     27  N9  UNK     0      -1.550  -0.616  -0.001  0.00  0.00    +0.000 N 
ATOM     28  H73 UNK     0      -0.697  -0.055   0.212  0.00  0.00    +0.000 HD
ATOM     29  O4  UNK     0      -2.501  -2.063  -1.564  0.00  0.00    +0.000 OA
BRANCH  27  30
ATOM     30  C21 UNK     0      -2.824  -0.189   0.588  0.00  0.00    +0.000 C 
BRANCH  30  31
ATOM     31  C20 UNK     0      -3.459   0.881  -0.260  0.00  0.00    +0.000 C 
ATOM     32  N8  UNK     0      -4.839   1.223  -0.060  0.00  0.00    +0.000 N 
ATOM     33  H62 UNK     0      -5.361   0.748   0.712  0.00  0.00    +0.000 HD
ATOM     34  O3  UNK     0      -2.772   1.494  -1.126  0.00  0.00    +0.000 OA
BRANCH  32  35
ATOM     35  C15 UNK     0      -5.550   2.141  -0.953  0.00  0.00    +0.000 C 
BRANCH  35  36
ATOM     36  C16 UNK     0      -5.866   1.425  -2.255  0.00  0.00    +0.000 C 
ATOM     37  O2  UNK     0      -5.271   1.761  -3.269  0.00  0.00    +0.000 OA
BRANCH  36  38
ATOM     38  C13 UNK     0      -6.834   0.262  -2.319  0.00  0.00    +0.000 C 
ATOM     39  O1  UNK     0      -7.019  -0.215  -3.633  0.00  0.00    +0.000 OA
ATOM     40  C14 UNK     0      -8.107   0.467  -3.049  0.00  0.00    +0.000 C 
ATOM     41  C17 UNK     0      -6.745  -0.889  -1.315  0.00  0.00    +0.000 C 
ENDBRANCH  36  38
ENDBRANCH  35  36
BRANCH  35  42
ATOM     42  C18 UNK     0      -6.817   2.704  -0.252  0.00  0.00    +0.000 C 
BRANCH  42  43
ATOM     43  C19 UNK     0      -7.311   4.094  -0.740  0.00  0.00    +0.000 C 
ATOM     44  C23 UNK     0      -7.866   4.066  -2.169  0.00  0.00    +0.000 C 
ATOM     45  C22 UNK     0      -6.256   5.201  -0.581  0.00  0.00    +0.000 C 
ENDBRANCH  42  43
ENDBRANCH  35  42
ENDBRANCH  32  35
ENDBRANCH  30  31
BRANCH  30  46
ATOM     46  C24 UNK     0      -2.605   0.328   2.021  0.00  0.00    +0.000 C 
BRANCH  46  47
ATOM     47  C29 UNK     0      -1.946  -0.718   2.883  0.00  0.00    +0.000 A 
ATOM     48  C37 UNK     0      -2.694  -1.793   3.390  0.00  0.00    +0.000 A 
ATOM     49  C45 UNK     0      -2.070  -2.792   4.143  0.00  0.00    +0.000 A 
ATOM     50  C47 UNK     0      -0.695  -2.733   4.384  0.00  0.00    +0.000 A 
ATOM     51  C46 UNK     0       0.057  -1.665   3.885  0.00  0.00    +0.000 A 
ATOM     52  C38 UNK     0      -0.565  -0.660   3.138  0.00  0.00    +0.000 A 
ENDBRANCH  46  47
ENDBRANCH  30  46
ENDBRANCH  27  30
ENDBRANCH   1  26
BRANCH   1  53
ATOM     53  C26 UNK     0       0.196  -3.396  -0.036  0.00  0.00    +0.000 C 
BRANCH  53  54
ATOM     54  C28 UNK     0      -0.616  -4.719  -0.050  0.00  0.00    +0.000 C 
ATOM     55  C33 UNK     0      -1.918  -4.597   0.757  0.00  0.00    +0.000 C 
ATOM     56  C34 UNK     0       0.226  -5.871   0.518  0.00  0.00    +0.000 C 
ENDBRANCH  53  54
ENDBRANCH   1  53
TORSDOF 20
