REMARK  Name = C:\Users\Maximilian\Desktop\Conformers\converted_pdb\conformers_pdb\TAK_242_conf_31.pdb
REMARK  25 active torsions:
REMARK  status: ('A' for Active; 'I' for Inactive)
REMARK    1  A    between atoms: C25_1  and  N10_2
REMARK    2  A    between atoms: C25_1  and  C27_26
REMARK    3  A    between atoms: C25_1  and  C26_53
REMARK    4  A    between atoms: C31_4  and  C30_6
REMARK    5  A    between atoms: C30_6  and  C32_7
REMARK    6  A    between atoms: C30_6  and  N11_15
REMARK    7  A    between atoms: C32_7  and  C35_8
REMARK    8  A    between atoms: C35_8  and  C44_9
REMARK    9  A    between atoms: C41_16  and  C36_19
REMARK   10  A    between atoms: C36_19  and  N12_20
REMARK   11  A    between atoms: N9_27  and  C21_30
REMARK   12  A    between atoms: C21_30  and  C24_31
REMARK   13  A    between atoms: C21_30  and  C20_38
REMARK   14  A    between atoms: C24_31  and  C29_32
REMARK   15  A    between atoms: N8_39  and  C15_42
REMARK   16  A    between atoms: C15_42  and  C18_43
REMARK   17  A    between atoms: C15_42  and  C16_47
REMARK   18  A    between atoms: C18_43  and  C19_44
REMARK   19  A    between atoms: C19_44  and  C23_45
REMARK   20  A    between atoms: C19_44  and  C22_46
REMARK   21  A    between atoms: C16_47  and  C13_49
REMARK   22  A    between atoms: C13_49  and  C17_52
REMARK   23  A    between atoms: C26_53  and  C28_54
REMARK   24  A    between atoms: C28_54  and  C33_55
REMARK   25  A    between atoms: C28_54  and  C34_56
REMARK                            x       y       z     vdW  Elec       q    Type
REMARK                         _______ _______ _______ _____ _____    ______ ____
ROOT
ATOM      1  C25 UNK     0      -0.579  -1.406   0.531  0.00  0.00    +0.000 C 
ENDROOT
BRANCH   1   2
ATOM      2  N10 UNK     0      -1.942  -0.906   0.328  0.00  0.00    +0.000 N 
ATOM      3  H77 UNK     0      -2.338  -0.970  -0.635  0.00  0.00    +0.000 HD
ATOM      4  C31 UNK     0      -2.712  -0.287   1.370  0.00  0.00    +0.000 C 
ATOM      5  O6  UNK     0      -2.195  -0.112   2.508  0.00  0.00    +0.000 OA
BRANCH   4   6
ATOM      6  C30 UNK     0      -4.151   0.132   1.160  0.00  0.00    +0.000 C 
BRANCH   6   7
ATOM      7  N11 UNK     0      -4.316   0.916  -0.069  0.00  0.00    +0.000 N 
ATOM      8  C41 UNK     0      -5.294   1.959  -0.187  0.00  0.00    +0.000 C 
ATOM      9  O7  UNK     0      -5.963   2.329   0.817  0.00  0.00    +0.000 OA
ATOM     10  H87 UNK     0      -3.816   0.627  -0.938  0.00  0.00    +0.000 HD
BRANCH   8  11
ATOM     11  C36 UNK     0      -5.506   2.641  -1.505  0.00  0.00    +0.000 C 
BRANCH  11  12
ATOM     12  N12 UNK     0      -5.858   1.651  -2.548  0.00  0.00    +0.000 NA
ATOM     13  C39 UNK     0      -7.250   1.156  -2.421  0.00  0.00    +0.000 C 
ATOM     14  C42 UNK     0      -8.245   1.942  -3.300  0.00  0.00    +0.000 C 
ATOM     15  O5  UNK     0      -7.797   3.267  -3.494  0.00  0.00    +0.000 OA
ATOM     16  C43 UNK     0      -6.630   3.275  -4.298  0.00  0.00    +0.000 C 
ATOM     17  C40 UNK     0      -5.608   2.179  -3.903  0.00  0.00    +0.000 C 
ENDBRANCH  11  12
ENDBRANCH   8  11
ENDBRANCH   6   7
BRANCH   6  18
ATOM     18  C32 UNK     0      -5.127  -1.064   1.205  0.00  0.00    +0.000 C 
BRANCH  18  19
ATOM     19  C35 UNK     0      -5.015  -2.016   0.004  0.00  0.00    +0.000 C 
BRANCH  19  20
ATOM     20  C44 UNK     0      -5.963  -3.173   0.163  0.00  0.00    +0.000 A 
ATOM     21  C49 UNK     0      -5.551  -4.338   0.829  0.00  0.00    +0.000 A 
ATOM     22  C51 UNK     0      -6.438  -5.407   0.997  0.00  0.00    +0.000 A 
ATOM     23  C52 UNK     0      -7.744  -5.313   0.510  0.00  0.00    +0.000 A 
ATOM     24  C50 UNK     0      -8.171  -4.147  -0.134  0.00  0.00    +0.000 A 
ATOM     25  C48 UNK     0      -7.285  -3.078  -0.305  0.00  0.00    +0.000 A 
ENDBRANCH  19  20
ENDBRANCH  18  19
ENDBRANCH   6  18
ENDBRANCH   4   6
ENDBRANCH   1   2
BRANCH   1  26
ATOM     26  C27 UNK     0       0.377  -0.522  -0.226  0.00  0.00    +0.000 C 
ATOM     27  N9  UNK     0       1.459   0.120   0.461  0.00  0.00    +0.000 N 
ATOM     28  H73 UNK     0       1.532  -0.015   1.494  0.00  0.00    +0.000 HD
ATOM     29  O4  UNK     0       0.217  -0.347  -1.465  0.00  0.00    +0.000 OA
BRANCH  27  30
ATOM     30  C21 UNK     0       2.352   1.085  -0.192  0.00  0.00    +0.000 C 
BRANCH  30  31
ATOM     31  C20 UNK     0       3.762   0.929   0.319  0.00  0.00    +0.000 C 
ATOM     32  N8  UNK     0       4.874   1.144  -0.558  0.00  0.00    +0.000 N 
ATOM     33  H62 UNK     0       4.693   1.539  -1.512  0.00  0.00    +0.000 HD
ATOM     34  O3  UNK     0       3.963   0.642   1.531  0.00  0.00    +0.000 OA
BRANCH  32  35
ATOM     35  C15 UNK     0       6.257   0.945  -0.123  0.00  0.00    +0.000 C 
BRANCH  35  36
ATOM     36  C16 UNK     0       7.063   0.400  -1.276  0.00  0.00    +0.000 C 
ATOM     37  O2  UNK     0       7.422   1.136  -2.183  0.00  0.00    +0.000 OA
BRANCH  36  38
ATOM     38  C13 UNK     0       7.401  -1.063  -1.323  0.00  0.00    +0.000 C 
ATOM     39  O1  UNK     0       7.308  -1.611  -2.618  0.00  0.00    +0.000 OA
ATOM     40  C14 UNK     0       6.317  -2.006  -1.689  0.00  0.00    +0.000 C 
ATOM     41  C17 UNK     0       8.589  -1.592  -0.527  0.00  0.00    +0.000 C 
ENDBRANCH  36  38
ENDBRANCH  35  36
BRANCH  35  42
ATOM     42  C18 UNK     0       6.824   2.272   0.425  0.00  0.00    +0.000 C 
BRANCH  42  43
ATOM     43  C19 UNK     0       8.253   2.158   1.008  0.00  0.00    +0.000 C 
ATOM     44  C23 UNK     0       8.269   1.368   2.327  0.00  0.00    +0.000 C 
ATOM     45  C22 UNK     0       8.834   3.559   1.245  0.00  0.00    +0.000 C 
ENDBRANCH  42  43
ENDBRANCH  35  42
ENDBRANCH  32  35
ENDBRANCH  30  31
BRANCH  30  46
ATOM     46  C24 UNK     0       1.832   2.523   0.001  0.00  0.00    +0.000 C 
BRANCH  46  47
ATOM     47  C29 UNK     0       1.692   2.917   1.454  0.00  0.00    +0.000 A 
ATOM     48  C37 UNK     0       0.514   2.623   2.161  0.00  0.00    +0.000 A 
ATOM     49  C45 UNK     0       0.413   2.931   3.522  0.00  0.00    +0.000 A 
ATOM     50  C47 UNK     0       1.478   3.548   4.184  0.00  0.00    +0.000 A 
ATOM     51  C46 UNK     0       2.650   3.848   3.485  0.00  0.00    +0.000 A 
ATOM     52  C38 UNK     0       2.760   3.533   2.127  0.00  0.00    +0.000 A 
ENDBRANCH  46  47
ENDBRANCH  30  46
ENDBRANCH  27  30
ENDBRANCH   1  26
BRANCH   1  53
ATOM     53  C26 UNK     0      -0.493  -2.877   0.068  0.00  0.00    +0.000 C 
BRANCH  53  54
ATOM     54  C28 UNK     0       0.798  -3.605   0.537  0.00  0.00    +0.000 C 
ATOM     55  C33 UNK     0       1.968  -3.387  -0.435  0.00  0.00    +0.000 C 
ATOM     56  C34 UNK     0       0.538  -5.110   0.694  0.00  0.00    +0.000 C 
ENDBRANCH  53  54
ENDBRANCH   1  53
TORSDOF 20
