REMARK  Name = C:\Users\Maximilian\Desktop\Conformers\converted_pdb\conformers_pdb\TAK_242_conf_9.pdb
REMARK  25 active torsions:
REMARK  status: ('A' for Active; 'I' for Inactive)
REMARK    1  A    between atoms: C25_1  and  N10_2
REMARK    2  A    between atoms: C25_1  and  C27_26
REMARK    3  A    between atoms: C25_1  and  C26_53
REMARK    4  A    between atoms: C31_4  and  C30_6
REMARK    5  A    between atoms: C30_6  and  C32_7
REMARK    6  A    between atoms: C30_6  and  N11_15
REMARK    7  A    between atoms: C32_7  and  C35_8
REMARK    8  A    between atoms: C35_8  and  C44_9
REMARK    9  A    between atoms: C41_16  and  C36_19
REMARK   10  A    between atoms: C36_19  and  N12_20
REMARK   11  A    between atoms: N9_27  and  C21_30
REMARK   12  A    between atoms: C21_30  and  C24_31
REMARK   13  A    between atoms: C21_30  and  C20_38
REMARK   14  A    between atoms: C24_31  and  C29_32
REMARK   15  A    between atoms: N8_39  and  C15_42
REMARK   16  A    between atoms: C15_42  and  C18_43
REMARK   17  A    between atoms: C15_42  and  C16_47
REMARK   18  A    between atoms: C18_43  and  C19_44
REMARK   19  A    between atoms: C19_44  and  C23_45
REMARK   20  A    between atoms: C19_44  and  C22_46
REMARK   21  A    between atoms: C16_47  and  C13_49
REMARK   22  A    between atoms: C13_49  and  C17_52
REMARK   23  A    between atoms: C26_53  and  C28_54
REMARK   24  A    between atoms: C28_54  and  C33_55
REMARK   25  A    between atoms: C28_54  and  C34_56
REMARK                            x       y       z     vdW  Elec       q    Type
REMARK                         _______ _______ _______ _____ _____    ______ ____
ROOT
ATOM      1  C25 UNK     0      -0.266  -0.499   0.766  0.00  0.00    +0.000 C 
ENDROOT
BRANCH   1   2
ATOM      2  N10 UNK     0      -1.203  -0.574  -0.356  0.00  0.00    +0.000 N 
ATOM      3  H77 UNK     0      -0.867  -1.011  -1.245  0.00  0.00    +0.000 HD
ATOM      4  C31 UNK     0      -2.607  -0.309  -0.227  0.00  0.00    +0.000 C 
ATOM      5  O6  UNK     0      -3.084   0.086   0.873  0.00  0.00    +0.000 OA
BRANCH   4   6
ATOM      6  C30 UNK     0      -3.497  -0.463  -1.434  0.00  0.00    +0.000 C 
BRANCH   6   7
ATOM      7  N11 UNK     0      -4.867  -0.844  -1.073  0.00  0.00    +0.000 N 
ATOM      8  C41 UNK     0      -5.175  -2.079  -0.407  0.00  0.00    +0.000 C 
ATOM      9  O7  UNK     0      -4.334  -2.623   0.353  0.00  0.00    +0.000 OA
ATOM     10  H87 UNK     0      -5.671  -0.309  -1.482  0.00  0.00    +0.000 HD
BRANCH   8  11
ATOM     11  C36 UNK     0      -6.492  -2.750  -0.616  0.00  0.00    +0.000 C 
BRANCH  11  12
ATOM     12  N12 UNK     0      -7.605  -1.792  -0.432  0.00  0.00    +0.000 NA
ATOM     13  C39 UNK     0      -8.835  -2.227  -1.124  0.00  0.00    +0.000 C 
ATOM     14  C42 UNK     0      -9.561  -3.329  -0.337  0.00  0.00    +0.000 C 
ATOM     15  O5  UNK     0      -9.894  -2.873   0.963  0.00  0.00    +0.000 OA
ATOM     16  C43 UNK     0      -8.701  -2.603   1.676  0.00  0.00    +0.000 C 
ATOM     17  C40 UNK     0      -7.877  -1.499   0.993  0.00  0.00    +0.000 C 
ENDBRANCH  11  12
ENDBRANCH   8  11
ENDBRANCH   6   7
BRANCH   6  18
ATOM     18  C32 UNK     0      -3.470   0.820  -2.294  0.00  0.00    +0.000 C 
BRANCH  18  19
ATOM     19  C35 UNK     0      -4.009   2.060  -1.554  0.00  0.00    +0.000 C 
BRANCH  19  20
ATOM     20  C44 UNK     0      -3.791   3.293  -2.386  0.00  0.00    +0.000 A 
ATOM     21  C49 UNK     0      -2.548   3.948  -2.364  0.00  0.00    +0.000 A 
ATOM     22  C51 UNK     0      -2.332   5.077  -3.157  0.00  0.00    +0.000 A 
ATOM     23  C52 UNK     0      -3.359   5.562  -3.976  0.00  0.00    +0.000 A 
ATOM     24  C50 UNK     0      -4.588   4.896  -4.026  0.00  0.00    +0.000 A 
ATOM     25  C48 UNK     0      -4.802   3.761  -3.239  0.00  0.00    +0.000 A 
ENDBRANCH  19  20
ENDBRANCH  18  19
ENDBRANCH   6  18
ENDBRANCH   4   6
ENDBRANCH   1   2
BRANCH   1  26
ATOM     26  C27 UNK     0       1.075   0.004   0.285  0.00  0.00    +0.000 C 
ATOM     27  N9  UNK     0       1.832   0.908   1.097  0.00  0.00    +0.000 N 
ATOM     28  H73 UNK     0       1.468   1.192   2.025  0.00  0.00    +0.000 HD
ATOM     29  O4  UNK     0       1.542  -0.394  -0.813  0.00  0.00    +0.000 OA
BRANCH  27  30
ATOM     30  C21 UNK     0       3.117   1.446   0.641  0.00  0.00    +0.000 C 
BRANCH  30  31
ATOM     31  C20 UNK     0       4.186   0.390   0.702  0.00  0.00    +0.000 C 
ATOM     32  N8  UNK     0       5.376   0.530  -0.095  0.00  0.00    +0.000 N 
ATOM     33  H62 UNK     0       5.518   1.404  -0.653  0.00  0.00    +0.000 HD
ATOM     34  O3  UNK     0       4.056  -0.599   1.482  0.00  0.00    +0.000 OA
BRANCH  32  35
ATOM     35  C15 UNK     0       6.429  -0.499  -0.163  0.00  0.00    +0.000 C 
BRANCH  35  36
ATOM     36  C16 UNK     0       7.134  -0.631   1.186  0.00  0.00    +0.000 C 
ATOM     37  O2  UNK     0       6.868   0.178   2.058  0.00  0.00    +0.000 OA
BRANCH  36  38
ATOM     38  C13 UNK     0       8.226  -1.654   1.451  0.00  0.00    +0.000 C 
ATOM     39  O1  UNK     0       7.826  -2.608   2.419  0.00  0.00    +0.000 OA
ATOM     40  C14 UNK     0       8.838  -1.701   2.822  0.00  0.00    +0.000 C 
ATOM     41  C17 UNK     0       9.047  -2.288   0.319  0.00  0.00    +0.000 C 
ENDBRANCH  36  38
ENDBRANCH  35  36
BRANCH  35  42
ATOM     42  C18 UNK     0       5.859  -1.837  -0.703  0.00  0.00    +0.000 C 
BRANCH  42  43
ATOM     43  C19 UNK     0       5.015  -1.681  -1.995  0.00  0.00    +0.000 C 
ATOM     44  C23 UNK     0       4.513  -3.051  -2.461  0.00  0.00    +0.000 C 
ATOM     45  C22 UNK     0       5.798  -1.007  -3.138  0.00  0.00    +0.000 C 
ENDBRANCH  42  43
ENDBRANCH  35  42
ENDBRANCH  32  35
ENDBRANCH  30  31
BRANCH  30  46
ATOM     46  C24 UNK     0       3.544   2.659   1.490  0.00  0.00    +0.000 C 
BRANCH  46  47
ATOM     47  C29 UNK     0       2.482   3.735   1.497  0.00  0.00    +0.000 A 
ATOM     48  C37 UNK     0       2.223   4.488   0.337  0.00  0.00    +0.000 A 
ATOM     49  C45 UNK     0       1.223   5.465   0.345  0.00  0.00    +0.000 A 
ATOM     50  C47 UNK     0       0.482   5.705   1.501  0.00  0.00    +0.000 A 
ATOM     51  C46 UNK     0       0.745   4.973   2.662  0.00  0.00    +0.000 A 
ATOM     52  C38 UNK     0       1.734   3.988   2.658  0.00  0.00    +0.000 A 
ENDBRANCH  46  47
ENDBRANCH  30  46
ENDBRANCH  27  30
ENDBRANCH   1  26
BRANCH   1  53
ATOM     53  C26 UNK     0      -0.131  -1.895   1.413  0.00  0.00    +0.000 C 
BRANCH  53  54
ATOM     54  C28 UNK     0       0.717  -1.916   2.710  0.00  0.00    +0.000 C 
ATOM     55  C33 UNK     0       0.989  -3.364   3.130  0.00  0.00    +0.000 C 
ATOM     56  C34 UNK     0       0.043  -1.154   3.857  0.00  0.00    +0.000 C 
ENDBRANCH  53  54
ENDBRANCH   1  53
TORSDOF 20
