REMARK  Name = C:\Users\Maximilian\Desktop\Conformers\converted_pdb\conformers_pdb\TAK_242_conf_20.pdb
REMARK  25 active torsions:
REMARK  status: ('A' for Active; 'I' for Inactive)
REMARK    1  A    between atoms: C25_1  and  N10_2
REMARK    2  A    between atoms: C25_1  and  C27_26
REMARK    3  A    between atoms: C25_1  and  C26_53
REMARK    4  A    between atoms: C31_4  and  C30_6
REMARK    5  A    between atoms: C30_6  and  C32_7
REMARK    6  A    between atoms: C30_6  and  N11_15
REMARK    7  A    between atoms: C32_7  and  C35_8
REMARK    8  A    between atoms: C35_8  and  C44_9
REMARK    9  A    between atoms: C41_16  and  C36_19
REMARK   10  A    between atoms: C36_19  and  N12_20
REMARK   11  A    between atoms: N9_27  and  C21_30
REMARK   12  A    between atoms: C21_30  and  C24_31
REMARK   13  A    between atoms: C21_30  and  C20_38
REMARK   14  A    between atoms: C24_31  and  C29_32
REMARK   15  A    between atoms: N8_39  and  C15_42
REMARK   16  A    between atoms: C15_42  and  C18_43
REMARK   17  A    between atoms: C15_42  and  C16_47
REMARK   18  A    between atoms: C18_43  and  C19_44
REMARK   19  A    between atoms: C19_44  and  C23_45
REMARK   20  A    between atoms: C19_44  and  C22_46
REMARK   21  A    between atoms: C16_47  and  C13_49
REMARK   22  A    between atoms: C13_49  and  C17_52
REMARK   23  A    between atoms: C26_53  and  C28_54
REMARK   24  A    between atoms: C28_54  and  C33_55
REMARK   25  A    between atoms: C28_54  and  C34_56
REMARK                            x       y       z     vdW  Elec       q    Type
REMARK                         _______ _______ _______ _____ _____    ______ ____
ROOT
ATOM      1  C25 UNK     0      -0.413  -0.962   1.695  0.00  0.00    +0.000 C 
ENDROOT
BRANCH   1   2
ATOM      2  N10 UNK     0      -1.822  -1.184   1.347  0.00  0.00    +0.000 N 
ATOM      3  H77 UNK     0      -2.232  -2.143   1.429  0.00  0.00    +0.000 HD
ATOM      4  C31 UNK     0      -2.677  -0.115   0.912  0.00  0.00    +0.000 C 
ATOM      5  O6  UNK     0      -2.243   1.070   0.881  0.00  0.00    +0.000 OA
BRANCH   4   6
ATOM      6  C30 UNK     0      -4.077  -0.417   0.449  0.00  0.00    +0.000 C 
BRANCH   6   7
ATOM      7  N11 UNK     0      -4.855   0.823   0.335  0.00  0.00    +0.000 N 
ATOM      8  C41 UNK     0      -5.856   1.214   1.286  0.00  0.00    +0.000 C 
ATOM      9  O7  UNK     0      -6.163   0.450   2.240  0.00  0.00    +0.000 OA
ATOM     10  H87 UNK     0      -4.603   1.495  -0.427  0.00  0.00    +0.000 HD
BRANCH   8  11
ATOM     11  C36 UNK     0      -6.509   2.563   1.190  0.00  0.00    +0.000 C 
BRANCH  11  12
ATOM     12  N12 UNK     0      -6.840   2.894  -0.214  0.00  0.00    +0.000 NA
ATOM     13  C39 UNK     0      -7.005   4.348  -0.407  0.00  0.00    +0.000 C 
ATOM     14  C42 UNK     0      -8.322   4.865   0.224  0.00  0.00    +0.000 C 
ATOM     15  O5  UNK     0      -9.273   3.839   0.460  0.00  0.00    +0.000 OA
ATOM     16  C43 UNK     0      -9.322   2.952  -0.638  0.00  0.00    +0.000 C 
ATOM     17  C40 UNK     0      -8.015   2.141  -0.722  0.00  0.00    +0.000 C 
ENDBRANCH  11  12
ENDBRANCH   8  11
ENDBRANCH   6   7
BRANCH   6  18
ATOM     18  C32 UNK     0      -4.032  -1.146  -0.910  0.00  0.00    +0.000 C 
BRANCH  18  19
ATOM     19  C35 UNK     0      -5.419  -1.587  -1.409  0.00  0.00    +0.000 C 
BRANCH  19  20
ATOM     20  C44 UNK     0      -6.070  -2.571  -0.469  0.00  0.00    +0.000 A 
ATOM     21  C49 UNK     0      -5.567  -3.878  -0.345  0.00  0.00    +0.000 A 
ATOM     22  C51 UNK     0      -6.146  -4.772   0.562  0.00  0.00    +0.000 A 
ATOM     23  C52 UNK     0      -7.232  -4.371   1.344  0.00  0.00    +0.000 A 
ATOM     24  C50 UNK     0      -7.749  -3.078   1.215  0.00  0.00    +0.000 A 
ATOM     25  C48 UNK     0      -7.168  -2.179   0.315  0.00  0.00    +0.000 A 
ENDBRANCH  19  20
ENDBRANCH  18  19
ENDBRANCH   6  18
ENDBRANCH   4   6
ENDBRANCH   1   2
BRANCH   1  26
ATOM     26  C27 UNK     0       0.378  -0.491   0.501  0.00  0.00    +0.000 C 
ATOM     27  N9  UNK     0       1.619   0.197   0.705  0.00  0.00    +0.000 N 
ATOM     28  H73 UNK     0       1.986   0.263   1.682  0.00  0.00    +0.000 HD
ATOM     29  O4  UNK     0      -0.037  -0.730  -0.667  0.00  0.00    +0.000 OA
BRANCH  27  30
ATOM     30  C21 UNK     0       2.356   0.863  -0.375  0.00  0.00    +0.000 C 
BRANCH  30  31
ATOM     31  C20 UNK     0       3.759   0.322  -0.480  0.00  0.00    +0.000 C 
ATOM     32  N8  UNK     0       4.514   0.537  -1.681  0.00  0.00    +0.000 N 
ATOM     33  H62 UNK     0       4.033   0.985  -2.496  0.00  0.00    +0.000 HD
ATOM     34  O3  UNK     0       4.287  -0.264   0.505  0.00  0.00    +0.000 OA
BRANCH  32  35
ATOM     35  C15 UNK     0       5.931   0.180  -1.789  0.00  0.00    +0.000 C 
BRANCH  35  36
ATOM     36  C16 UNK     0       6.049  -1.302  -2.071  0.00  0.00    +0.000 C 
ATOM     37  O2  UNK     0       5.625  -1.752  -3.127  0.00  0.00    +0.000 OA
BRANCH  36  38
ATOM     38  C13 UNK     0       6.620  -2.242  -1.038  0.00  0.00    +0.000 C 
ATOM     39  O1  UNK     0       6.408  -3.598  -1.357  0.00  0.00    +0.000 OA
ATOM     40  C14 UNK     0       5.670  -3.078  -0.271  0.00  0.00    +0.000 C 
ATOM     41  C17 UNK     0       8.006  -1.997  -0.445  0.00  0.00    +0.000 C 
ENDBRANCH  36  38
ENDBRANCH  35  36
BRANCH  35  42
ATOM     42  C18 UNK     0       6.596   1.030  -2.897  0.00  0.00    +0.000 C 
BRANCH  42  43
ATOM     43  C19 UNK     0       8.131   0.855  -3.002  0.00  0.00    +0.000 C 
ATOM     44  C23 UNK     0       8.863   1.501  -1.814  0.00  0.00    +0.000 C 
ATOM     45  C22 UNK     0       8.639   1.463  -4.317  0.00  0.00    +0.000 C 
ENDBRANCH  42  43
ENDBRANCH  35  42
ENDBRANCH  32  35
ENDBRANCH  30  31
BRANCH  30  46
ATOM     46  C24 UNK     0       2.353   2.391  -0.165  0.00  0.00    +0.000 C 
BRANCH  46  47
ATOM     47  C29 UNK     0       3.048   2.819   1.107  0.00  0.00    +0.000 A 
ATOM     48  C37 UNK     0       2.321   2.949   2.304  0.00  0.00    +0.000 A 
ATOM     49  C45 UNK     0       2.975   3.283   3.494  0.00  0.00    +0.000 A 
ATOM     50  C47 UNK     0       4.357   3.501   3.499  0.00  0.00    +0.000 A 
ATOM     51  C46 UNK     0       5.086   3.383   2.312  0.00  0.00    +0.000 A 
ATOM     52  C38 UNK     0       4.436   3.040   1.120  0.00  0.00    +0.000 A 
ENDBRANCH  46  47
ENDBRANCH  30  46
ENDBRANCH  27  30
ENDBRANCH   1  26
BRANCH   1  53
ATOM     53  C26 UNK     0       0.215  -2.220   2.341  0.00  0.00    +0.000 C 
BRANCH  53  54
ATOM     54  C28 UNK     0       0.402  -3.434   1.387  0.00  0.00    +0.000 C 
ATOM     55  C33 UNK     0       0.195  -4.748   2.153  0.00  0.00    +0.000 C 
ATOM     56  C34 UNK     0       1.797  -3.441   0.736  0.00  0.00    +0.000 C 
ENDBRANCH  53  54
ENDBRANCH   1  53
TORSDOF 20
