REMARK  Name = C:\Users\Maximilian\Desktop\Conformers\converted_pdb\conformers_pdb\TAK_242_conf_26.pdb
REMARK  25 active torsions:
REMARK  status: ('A' for Active; 'I' for Inactive)
REMARK    1  A    between atoms: C25_1  and  N10_2
REMARK    2  A    between atoms: C25_1  and  C27_26
REMARK    3  A    between atoms: C25_1  and  C26_53
REMARK    4  A    between atoms: C31_4  and  C30_6
REMARK    5  A    between atoms: C30_6  and  C32_7
REMARK    6  A    between atoms: C30_6  and  N11_15
REMARK    7  A    between atoms: C32_7  and  C35_8
REMARK    8  A    between atoms: C35_8  and  C44_9
REMARK    9  A    between atoms: C41_16  and  C36_19
REMARK   10  A    between atoms: C36_19  and  N12_20
REMARK   11  A    between atoms: N9_27  and  C21_30
REMARK   12  A    between atoms: C21_30  and  C24_31
REMARK   13  A    between atoms: C21_30  and  C20_38
REMARK   14  A    between atoms: C24_31  and  C29_32
REMARK   15  A    between atoms: N8_39  and  C15_42
REMARK   16  A    between atoms: C15_42  and  C18_43
REMARK   17  A    between atoms: C15_42  and  C16_47
REMARK   18  A    between atoms: C18_43  and  C19_44
REMARK   19  A    between atoms: C19_44  and  C23_45
REMARK   20  A    between atoms: C19_44  and  C22_46
REMARK   21  A    between atoms: C16_47  and  C13_49
REMARK   22  A    between atoms: C13_49  and  C17_52
REMARK   23  A    between atoms: C26_53  and  C28_54
REMARK   24  A    between atoms: C28_54  and  C33_55
REMARK   25  A    between atoms: C28_54  and  C34_56
REMARK                            x       y       z     vdW  Elec       q    Type
REMARK                         _______ _______ _______ _____ _____    ______ ____
ROOT
ATOM      1  C25 UNK     0       1.455   2.904   1.155  0.00  0.00    +0.000 C 
ENDROOT
BRANCH   1   2
ATOM      2  N10 UNK     0       1.885   1.925   0.153  0.00  0.00    +0.000 N 
ATOM      3  H77 UNK     0       1.292   1.802  -0.697  0.00  0.00    +0.000 HD
ATOM      4  C31 UNK     0       3.152   1.249   0.257  0.00  0.00    +0.000 C 
ATOM      5  O6  UNK     0       3.900   1.487   1.245  0.00  0.00    +0.000 OA
BRANCH   4   6
ATOM      6  C30 UNK     0       3.689   0.375  -0.861  0.00  0.00    +0.000 C 
BRANCH   6   7
ATOM      7  N11 UNK     0       4.657  -0.625  -0.382  0.00  0.00    +0.000 N 
ATOM      8  C41 UNK     0       4.515  -1.415   0.812  0.00  0.00    +0.000 C 
ATOM      9  O7  UNK     0       3.452  -1.371   1.491  0.00  0.00    +0.000 OA
ATOM     10  H87 UNK     0       5.516  -0.767  -0.962  0.00  0.00    +0.000 HD
BRANCH   8  11
ATOM     11  C36 UNK     0       5.623  -2.329   1.253  0.00  0.00    +0.000 C 
BRANCH  11  12
ATOM     12  N12 UNK     0       6.949  -1.699   1.048  0.00  0.00    +0.000 NA
ATOM     13  C39 UNK     0       8.049  -2.683   1.094  0.00  0.00    +0.000 C 
ATOM     14  C42 UNK     0       8.412  -3.061   2.537  0.00  0.00    +0.000 C 
ATOM     15  O5  UNK     0       8.765  -1.911   3.280  0.00  0.00    +0.000 OA
ATOM     16  C43 UNK     0       7.649  -1.049   3.365  0.00  0.00    +0.000 C 
ATOM     17  C40 UNK     0       7.211  -0.567   1.971  0.00  0.00    +0.000 C 
ENDBRANCH  11  12
ENDBRANCH   8  11
ENDBRANCH   6   7
BRANCH   6  18
ATOM     18  C32 UNK     0       2.628  -0.285  -1.769  0.00  0.00    +0.000 C 
BRANCH  18  19
ATOM     19  C35 UNK     0       1.633  -1.201  -1.045  0.00  0.00    +0.000 C 
BRANCH  19  20
ATOM     20  C44 UNK     0       0.552  -1.618  -2.001  0.00  0.00    +0.000 A 
ATOM     21  C49 UNK     0       0.623  -2.856  -2.662  0.00  0.00    +0.000 A 
ATOM     22  C51 UNK     0      -0.354  -3.206  -3.600  0.00  0.00    +0.000 A 
ATOM     23  C52 UNK     0      -1.404  -2.325  -3.884  0.00  0.00    +0.000 A 
ATOM     24  C50 UNK     0      -1.471  -1.085  -3.242  0.00  0.00    +0.000 A 
ATOM     25  C48 UNK     0      -0.492  -0.727  -2.307  0.00  0.00    +0.000 A 
ENDBRANCH  19  20
ENDBRANCH  18  19
ENDBRANCH   6  18
ENDBRANCH   4   6
ENDBRANCH   1   2
BRANCH   1  26
ATOM     26  C27 UNK     0      -0.053   3.064   1.154  0.00  0.00    +0.000 C 
ATOM     27  N9  UNK     0      -0.912   1.914   1.065  0.00  0.00    +0.000 N 
ATOM     28  H73 UNK     0      -0.473   0.967   1.041  0.00  0.00    +0.000 HD
ATOM     29  O4  UNK     0      -0.559   4.208   1.345  0.00  0.00    +0.000 OA
BRANCH  27  30
ATOM     30  C21 UNK     0      -2.374   2.028   1.189  0.00  0.00    +0.000 C 
BRANCH  30  31
ATOM     31  C20 UNK     0      -2.995   0.677   1.450  0.00  0.00    +0.000 C 
ATOM     32  N8  UNK     0      -3.159  -0.274   0.385  0.00  0.00    +0.000 N 
ATOM     33  H62 UNK     0      -2.541  -0.197  -0.448  0.00  0.00    +0.000 HD
ATOM     34  O3  UNK     0      -3.334   0.371   2.624  0.00  0.00    +0.000 OA
BRANCH  32  35
ATOM     35  C15 UNK     0      -4.191  -1.320   0.427  0.00  0.00    +0.000 C 
BRANCH  35  36
ATOM     36  C16 UNK     0      -4.855  -1.496  -0.928  0.00  0.00    +0.000 C 
ATOM     37  O2  UNK     0      -4.405  -0.923  -1.909  0.00  0.00    +0.000 OA
BRANCH  36  38
ATOM     38  C13 UNK     0      -6.090  -2.347  -1.109  0.00  0.00    +0.000 C 
ATOM     39  O1  UNK     0      -7.214  -1.523  -1.343  0.00  0.00    +0.000 OA
ATOM     40  C14 UNK     0      -7.219  -2.272  -0.145  0.00  0.00    +0.000 C 
ATOM     41  C17 UNK     0      -6.054  -3.518  -2.100  0.00  0.00    +0.000 C 
ENDBRANCH  36  38
ENDBRANCH  35  36
BRANCH  35  42
ATOM     42  C18 UNK     0      -3.633  -2.638   1.019  0.00  0.00    +0.000 C 
BRANCH  42  43
ATOM     43  C19 UNK     0      -2.336  -3.176   0.357  0.00  0.00    +0.000 C 
ATOM     44  C23 UNK     0      -2.642  -4.015  -0.890  0.00  0.00    +0.000 C 
ATOM     45  C22 UNK     0      -1.544  -4.027   1.361  0.00  0.00    +0.000 C 
ENDBRANCH  42  43
ENDBRANCH  35  42
ENDBRANCH  32  35
ENDBRANCH  30  31
BRANCH  30  46
ATOM     46  C24 UNK     0      -2.987   2.697  -0.066  0.00  0.00    +0.000 C 
BRANCH  46  47
ATOM     47  C29 UNK     0      -4.434   3.071   0.154  0.00  0.00    +0.000 A 
ATOM     48  C37 UNK     0      -5.471   2.299  -0.398  0.00  0.00    +0.000 A 
ATOM     49  C45 UNK     0      -6.807   2.644  -0.165  0.00  0.00    +0.000 A 
ATOM     50  C47 UNK     0      -7.115   3.745   0.639  0.00  0.00    +0.000 A 
ATOM     51  C46 UNK     0      -6.090   4.506   1.203  0.00  0.00    +0.000 A 
ATOM     52  C38 UNK     0      -4.755   4.177   0.957  0.00  0.00    +0.000 A 
ENDBRANCH  46  47
ENDBRANCH  30  46
ENDBRANCH  27  30
ENDBRANCH   1  26
BRANCH   1  53
ATOM     53  C26 UNK     0       2.213   4.247   0.965  0.00  0.00    +0.000 C 
BRANCH  53  54
ATOM     54  C28 UNK     0       1.949   4.962  -0.392  0.00  0.00    +0.000 C 
ATOM     55  C33 UNK     0       2.930   4.506  -1.484  0.00  0.00    +0.000 C 
ATOM     56  C34 UNK     0       2.059   6.481  -0.221  0.00  0.00    +0.000 C 
ENDBRANCH  53  54
ENDBRANCH   1  53
TORSDOF 20
