REMARK  Name = C:\Users\Maximilian\Desktop\Conformers\converted_pdb\conformers_pdb\TAK_242_conf_81.pdb
REMARK  25 active torsions:
REMARK  status: ('A' for Active; 'I' for Inactive)
REMARK    1  A    between atoms: C25_1  and  N10_2
REMARK    2  A    between atoms: C25_1  and  C27_26
REMARK    3  A    between atoms: C25_1  and  C26_53
REMARK    4  A    between atoms: C31_4  and  C30_6
REMARK    5  A    between atoms: C30_6  and  C32_7
REMARK    6  A    between atoms: C30_6  and  N11_15
REMARK    7  A    between atoms: C32_7  and  C35_8
REMARK    8  A    between atoms: C35_8  and  C44_9
REMARK    9  A    between atoms: C41_16  and  C36_19
REMARK   10  A    between atoms: C36_19  and  N12_20
REMARK   11  A    between atoms: N9_27  and  C21_30
REMARK   12  A    between atoms: C21_30  and  C24_31
REMARK   13  A    between atoms: C21_30  and  C20_38
REMARK   14  A    between atoms: C24_31  and  C29_32
REMARK   15  A    between atoms: N8_39  and  C15_42
REMARK   16  A    between atoms: C15_42  and  C18_43
REMARK   17  A    between atoms: C15_42  and  C16_47
REMARK   18  A    between atoms: C18_43  and  C19_44
REMARK   19  A    between atoms: C19_44  and  C23_45
REMARK   20  A    between atoms: C19_44  and  C22_46
REMARK   21  A    between atoms: C16_47  and  C13_49
REMARK   22  A    between atoms: C13_49  and  C17_52
REMARK   23  A    between atoms: C26_53  and  C28_54
REMARK   24  A    between atoms: C28_54  and  C33_55
REMARK   25  A    between atoms: C28_54  and  C34_56
REMARK                            x       y       z     vdW  Elec       q    Type
REMARK                         _______ _______ _______ _____ _____    ______ ____
ROOT
ATOM      1  C25 UNK     0       0.150  -0.072  -0.300  0.00  0.00    +0.000 C 
ENDROOT
BRANCH   1   2
ATOM      2  N10 UNK     0       1.400   0.496  -0.826  0.00  0.00    +0.000 N 
ATOM      3  H77 UNK     0       1.385   1.059  -1.708  0.00  0.00    +0.000 HD
ATOM      4  C31 UNK     0       2.677   0.192  -0.238  0.00  0.00    +0.000 C 
ATOM      5  O6  UNK     0       2.721  -0.429   0.859  0.00  0.00    +0.000 OA
BRANCH   4   6
ATOM      6  C30 UNK     0       3.960   0.607  -0.937  0.00  0.00    +0.000 C 
BRANCH   6   7
ATOM      7  N11 UNK     0       5.153   0.241  -0.156  0.00  0.00    +0.000 N 
ATOM      8  C41 UNK     0       6.459   0.763  -0.458  0.00  0.00    +0.000 C 
ATOM      9  O7  UNK     0       6.590   1.724  -1.262  0.00  0.00    +0.000 OA
ATOM     10  H87 UNK     0       5.087  -0.498   0.580  0.00  0.00    +0.000 HD
BRANCH   8  11
ATOM     11  C36 UNK     0       7.684   0.126   0.151  0.00  0.00    +0.000 C 
BRANCH  11  12
ATOM     12  N12 UNK     0       8.448   1.013   1.053  0.00  0.00    +0.000 NA
ATOM     13  C39 UNK     0       9.290   1.988   0.337  0.00  0.00    +0.000 C 
ATOM     14  C42 UNK     0      10.125   2.771   1.356  0.00  0.00    +0.000 C 
ATOM     15  O5  UNK     0       9.293   3.431   2.294  0.00  0.00    +0.000 OA
ATOM     16  C43 UNK     0       8.528   2.480   3.013  0.00  0.00    +0.000 C 
ATOM     17  C40 UNK     0       7.617   1.679   2.075  0.00  0.00    +0.000 C 
ENDBRANCH  11  12
ENDBRANCH   8  11
ENDBRANCH   6   7
BRANCH   6  18
ATOM     18  C32 UNK     0       4.050   0.028  -2.374  0.00  0.00    +0.000 C 
BRANCH  18  19
ATOM     19  C35 UNK     0       3.871  -1.499  -2.487  0.00  0.00    +0.000 C 
BRANCH  19  20
ATOM     20  C44 UNK     0       4.975  -2.271  -1.812  0.00  0.00    +0.000 A 
ATOM     21  C49 UNK     0       6.276  -2.245  -2.338  0.00  0.00    +0.000 A 
ATOM     22  C51 UNK     0       7.306  -2.944  -1.707  0.00  0.00    +0.000 A 
ATOM     23  C52 UNK     0       7.047  -3.672  -0.541  0.00  0.00    +0.000 A 
ATOM     24  C50 UNK     0       5.756  -3.711  -0.013  0.00  0.00    +0.000 A 
ATOM     25  C48 UNK     0       4.717  -3.022  -0.655  0.00  0.00    +0.000 A 
ENDBRANCH  19  20
ENDBRANCH  18  19
ENDBRANCH   6  18
ENDBRANCH   4   6
ENDBRANCH   1   2
BRANCH   1  26
ATOM     26  C27 UNK     0      -0.940  -0.124  -1.346  0.00  0.00    +0.000 C 
ATOM     27  N9  UNK     0      -1.946  -1.146  -1.260  0.00  0.00    +0.000 N 
ATOM     28  H73 UNK     0      -1.944  -1.764  -0.417  0.00  0.00    +0.000 HD
ATOM     29  O4  UNK     0      -1.004   0.755  -2.244  0.00  0.00    +0.000 OA
BRANCH  27  30
ATOM     30  C21 UNK     0      -3.042  -1.260  -2.232  0.00  0.00    +0.000 C 
BRANCH  30  31
ATOM     31  C20 UNK     0      -4.238  -0.440  -1.809  0.00  0.00    +0.000 C 
ATOM     32  N8  UNK     0      -4.613  -0.327  -0.423  0.00  0.00    +0.000 N 
ATOM     33  H62 UNK     0      -4.013  -0.796   0.295  0.00  0.00    +0.000 HD
ATOM     34  O3  UNK     0      -4.960   0.080  -2.710  0.00  0.00    +0.000 OA
BRANCH  32  35
ATOM     35  C15 UNK     0      -5.697   0.552   0.033  0.00  0.00    +0.000 C 
BRANCH  35  36
ATOM     36  C16 UNK     0      -6.565  -0.208   1.019  0.00  0.00    +0.000 C 
ATOM     37  O2  UNK     0      -6.074  -0.631   2.054  0.00  0.00    +0.000 OA
BRANCH  36  38
ATOM     38  C13 UNK     0      -8.027  -0.471   0.750  0.00  0.00    +0.000 C 
ATOM     39  O1  UNK     0      -8.246  -1.834   0.455  0.00  0.00    +0.000 OA
ATOM     40  C14 UNK     0      -8.456  -0.924  -0.599  0.00  0.00    +0.000 C 
ATOM     41  C17 UNK     0      -9.068   0.044   1.735  0.00  0.00    +0.000 C 
ENDBRANCH  36  38
ENDBRANCH  35  36
BRANCH  35  42
ATOM     42  C18 UNK     0      -5.095   1.836   0.663  0.00  0.00    +0.000 C 
BRANCH  42  43
ATOM     43  C19 UNK     0      -5.794   3.162   0.274  0.00  0.00    +0.000 C 
ATOM     44  C23 UNK     0      -7.265   3.201   0.700  0.00  0.00    +0.000 C 
ATOM     45  C22 UNK     0      -5.638   3.501  -1.218  0.00  0.00    +0.000 C 
ENDBRANCH  42  43
ENDBRANCH  35  42
ENDBRANCH  32  35
ENDBRANCH  30  31
BRANCH  30  46
ATOM     46  C24 UNK     0      -3.417  -2.736  -2.490  0.00  0.00    +0.000 C 
BRANCH  46  47
ATOM     47  C29 UNK     0      -3.885  -3.483  -1.263  0.00  0.00    +0.000 A 
ATOM     48  C37 UNK     0      -2.979  -4.247  -0.504  0.00  0.00    +0.000 A 
ATOM     49  C45 UNK     0      -3.411  -4.903   0.655  0.00  0.00    +0.000 A 
ATOM     50  C47 UNK     0      -4.747  -4.826   1.048  0.00  0.00    +0.000 A 
ATOM     51  C46 UNK     0      -5.656  -4.078   0.293  0.00  0.00    +0.000 A 
ATOM     52  C38 UNK     0      -5.230  -3.402  -0.856  0.00  0.00    +0.000 A 
ENDBRANCH  46  47
ENDBRANCH  30  46
ENDBRANCH  27  30
ENDBRANCH   1  26
BRANCH   1  53
ATOM     53  C26 UNK     0      -0.319   0.641   0.992  0.00  0.00    +0.000 C 
BRANCH  53  54
ATOM     54  C28 UNK     0      -0.943   2.049   0.804  0.00  0.00    +0.000 C 
ATOM     55  C33 UNK     0       0.087   3.100   0.370  0.00  0.00    +0.000 C 
ATOM     56  C34 UNK     0      -1.619   2.498   2.107  0.00  0.00    +0.000 C 
ENDBRANCH  53  54
ENDBRANCH   1  53
TORSDOF 20
