REMARK  Name = C:\Users\Maximilian\Desktop\Conformers\converted_pdb\conformers_pdb\TAK_242_conf_1.pdb
REMARK  25 active torsions:
REMARK  status: ('A' for Active; 'I' for Inactive)
REMARK    1  A    between atoms: C25_1  and  N10_2
REMARK    2  A    between atoms: C25_1  and  C27_26
REMARK    3  A    between atoms: C25_1  and  C26_53
REMARK    4  A    between atoms: C31_4  and  C30_6
REMARK    5  A    between atoms: C30_6  and  C32_7
REMARK    6  A    between atoms: C30_6  and  N11_15
REMARK    7  A    between atoms: C32_7  and  C35_8
REMARK    8  A    between atoms: C35_8  and  C44_9
REMARK    9  A    between atoms: C41_16  and  C36_19
REMARK   10  A    between atoms: C36_19  and  N12_20
REMARK   11  A    between atoms: N9_27  and  C21_30
REMARK   12  A    between atoms: C21_30  and  C24_31
REMARK   13  A    between atoms: C21_30  and  C20_38
REMARK   14  A    between atoms: C24_31  and  C29_32
REMARK   15  A    between atoms: N8_39  and  C15_42
REMARK   16  A    between atoms: C15_42  and  C18_43
REMARK   17  A    between atoms: C15_42  and  C16_47
REMARK   18  A    between atoms: C18_43  and  C19_44
REMARK   19  A    between atoms: C19_44  and  C23_45
REMARK   20  A    between atoms: C19_44  and  C22_46
REMARK   21  A    between atoms: C16_47  and  C13_49
REMARK   22  A    between atoms: C13_49  and  C17_52
REMARK   23  A    between atoms: C26_53  and  C28_54
REMARK   24  A    between atoms: C28_54  and  C33_55
REMARK   25  A    between atoms: C28_54  and  C34_56
REMARK                            x       y       z     vdW  Elec       q    Type
REMARK                         _______ _______ _______ _____ _____    ______ ____
ROOT
ATOM      1  C25 UNK     0       0.195   0.284  -1.826  0.00  0.00    +0.000 C 
ENDROOT
BRANCH   1   2
ATOM      2  N10 UNK     0       1.414  -0.519  -1.679  0.00  0.00    +0.000 N 
ATOM      3  H77 UNK     0       1.703  -1.168  -2.446  0.00  0.00    +0.000 HD
ATOM      4  C31 UNK     0       2.246  -0.434  -0.513  0.00  0.00    +0.000 C 
ATOM      5  O6  UNK     0       1.866   0.231   0.491  0.00  0.00    +0.000 OA
BRANCH   4   6
ATOM      6  C30 UNK     0       3.551  -1.185  -0.474  0.00  0.00    +0.000 C 
BRANCH   6   7
ATOM      7  N11 UNK     0       4.443  -0.594   0.529  0.00  0.00    +0.000 N 
ATOM      8  C41 UNK     0       5.156   0.627   0.289  0.00  0.00    +0.000 C 
ATOM      9  O7  UNK     0       5.006   1.246  -0.802  0.00  0.00    +0.000 OA
ATOM     10  H87 UNK     0       4.492  -1.017   1.485  0.00  0.00    +0.000 HD
BRANCH   8  11
ATOM     11  C36 UNK     0       6.019   1.216   1.367  0.00  0.00    +0.000 C 
BRANCH  11  12
ATOM     12  N12 UNK     0       7.159   1.954   0.785  0.00  0.00    +0.000 NA
ATOM     13  C39 UNK     0       8.207   1.035   0.305  0.00  0.00    +0.000 C 
ATOM     14  C42 UNK     0       9.364   1.836  -0.330  0.00  0.00    +0.000 C 
ATOM     15  O5  UNK     0       9.235   3.230  -0.112  0.00  0.00    +0.000 OA
ATOM     16  C43 UNK     0       9.060   3.485   1.268  0.00  0.00    +0.000 C 
ATOM     17  C40 UNK     0       7.734   2.883   1.778  0.00  0.00    +0.000 C 
ENDBRANCH  11  12
ENDBRANCH   8  11
ENDBRANCH   6   7
BRANCH   6  18
ATOM     18  C32 UNK     0       3.284  -2.673  -0.165  0.00  0.00    +0.000 C 
BRANCH  18  19
ATOM     19  C35 UNK     0       4.495  -3.577  -0.457  0.00  0.00    +0.000 C 
BRANCH  19  20
ATOM     20  C44 UNK     0       5.604  -3.410   0.550  0.00  0.00    +0.000 A 
ATOM     21  C49 UNK     0       6.785  -2.728   0.207  0.00  0.00    +0.000 A 
ATOM     22  C51 UNK     0       7.806  -2.569   1.150  0.00  0.00    +0.000 A 
ATOM     23  C52 UNK     0       7.650  -3.069   2.446  0.00  0.00    +0.000 A 
ATOM     24  C50 UNK     0       6.478  -3.746   2.796  0.00  0.00    +0.000 A 
ATOM     25  C48 UNK     0       5.459  -3.921   1.853  0.00  0.00    +0.000 A 
ENDBRANCH  19  20
ENDBRANCH  18  19
ENDBRANCH   6  18
ENDBRANCH   4   6
ENDBRANCH   1   2
BRANCH   1  26
ATOM     26  C27 UNK     0      -0.857  -0.207  -0.867  0.00  0.00    +0.000 C 
ATOM     27  N9  UNK     0      -1.675   0.738  -0.167  0.00  0.00    +0.000 N 
ATOM     28  H73 UNK     0      -1.677   1.722  -0.516  0.00  0.00    +0.000 HD
ATOM     29  O4  UNK     0      -1.041  -1.445  -0.714  0.00  0.00    +0.000 OA
BRANCH  27  30
ATOM     30  C21 UNK     0      -2.685   0.343   0.822  0.00  0.00    +0.000 C 
BRANCH  30  31
ATOM     31  C20 UNK     0      -4.037   0.179   0.160  0.00  0.00    +0.000 C 
ATOM     32  N8  UNK     0      -5.160  -0.308   0.912  0.00  0.00    +0.000 N 
ATOM     33  H62 UNK     0      -5.128  -0.186   1.947  0.00  0.00    +0.000 HD
ATOM     34  O3  UNK     0      -4.157   0.398  -1.075  0.00  0.00    +0.000 OA
BRANCH  32  35
ATOM     35  C15 UNK     0      -6.139  -1.243   0.332  0.00  0.00    +0.000 C 
BRANCH  35  36
ATOM     36  C16 UNK     0      -6.826  -2.059   1.409  0.00  0.00    +0.000 C 
ATOM     37  O2  UNK     0      -7.147  -1.538   2.468  0.00  0.00    +0.000 OA
BRANCH  36  38
ATOM     38  C13 UNK     0      -7.097  -3.523   1.192  0.00  0.00    +0.000 C 
ATOM     39  O1  UNK     0      -7.238  -4.238   2.398  0.00  0.00    +0.000 OA
ATOM     40  C14 UNK     0      -6.065  -4.481   1.650  0.00  0.00    +0.000 C 
ATOM     41  C17 UNK     0      -8.087  -3.976   0.123  0.00  0.00    +0.000 C 
ENDBRANCH  36  38
ENDBRANCH  35  36
BRANCH  35  42
ATOM     42  C18 UNK     0      -7.135  -0.554  -0.644  0.00  0.00    +0.000 C 
BRANCH  42  43
ATOM     43  C19 UNK     0      -8.190   0.445  -0.093  0.00  0.00    +0.000 C 
ATOM     44  C23 UNK     0      -7.619   1.481   0.874  0.00  0.00    +0.000 C 
ATOM     45  C22 UNK     0      -9.436  -0.238   0.485  0.00  0.00    +0.000 C 
ENDBRANCH  42  43
ENDBRANCH  35  42
ENDBRANCH  32  35
ENDBRANCH  30  31
BRANCH  30  46
ATOM     46  C24 UNK     0      -2.685   1.323   2.018  0.00  0.00    +0.000 C 
BRANCH  46  47
ATOM     47  C29 UNK     0      -3.199   2.704   1.688  0.00  0.00    +0.000 A 
ATOM     48  C37 UNK     0      -4.548   3.024   1.905  0.00  0.00    +0.000 A 
ATOM     49  C45 UNK     0      -5.035   4.293   1.579  0.00  0.00    +0.000 A 
ATOM     50  C47 UNK     0      -4.173   5.258   1.052  0.00  0.00    +0.000 A 
ATOM     51  C46 UNK     0      -2.821   4.960   0.864  0.00  0.00    +0.000 A 
ATOM     52  C38 UNK     0      -2.332   3.691   1.186  0.00  0.00    +0.000 A 
ENDBRANCH  46  47
ENDBRANCH  30  46
ENDBRANCH  27  30
ENDBRANCH   1  26
BRANCH   1  53
ATOM     53  C26 UNK     0      -0.344   0.224  -3.274  0.00  0.00    +0.000 C 
BRANCH  53  54
ATOM     54  C28 UNK     0       0.343   1.226  -4.233  0.00  0.00    +0.000 C 
ATOM     55  C33 UNK     0      -0.356   1.194  -5.599  0.00  0.00    +0.000 C 
ATOM     56  C34 UNK     0       1.841   0.946  -4.410  0.00  0.00    +0.000 C 
ENDBRANCH  53  54
ENDBRANCH   1  53
TORSDOF 20
