REMARK  Name = C:\Users\Maximilian\Desktop\Conformers\converted_pdb\conformers_pdb\TAK_242_conf_24.pdb
REMARK  25 active torsions:
REMARK  status: ('A' for Active; 'I' for Inactive)
REMARK    1  A    between atoms: C25_1  and  N10_2
REMARK    2  A    between atoms: C25_1  and  C27_26
REMARK    3  A    between atoms: C25_1  and  C26_53
REMARK    4  A    between atoms: C31_4  and  C30_6
REMARK    5  A    between atoms: C30_6  and  C32_7
REMARK    6  A    between atoms: C30_6  and  N11_15
REMARK    7  A    between atoms: C32_7  and  C35_8
REMARK    8  A    between atoms: C35_8  and  C44_9
REMARK    9  A    between atoms: C41_16  and  C36_19
REMARK   10  A    between atoms: C36_19  and  N12_20
REMARK   11  A    between atoms: N9_27  and  C21_30
REMARK   12  A    between atoms: C21_30  and  C24_31
REMARK   13  A    between atoms: C21_30  and  C20_38
REMARK   14  A    between atoms: C24_31  and  C29_32
REMARK   15  A    between atoms: N8_39  and  C15_42
REMARK   16  A    between atoms: C15_42  and  C18_43
REMARK   17  A    between atoms: C15_42  and  C16_47
REMARK   18  A    between atoms: C18_43  and  C19_44
REMARK   19  A    between atoms: C19_44  and  C23_45
REMARK   20  A    between atoms: C19_44  and  C22_46
REMARK   21  A    between atoms: C16_47  and  C13_49
REMARK   22  A    between atoms: C13_49  and  C17_52
REMARK   23  A    between atoms: C26_53  and  C28_54
REMARK   24  A    between atoms: C28_54  and  C33_55
REMARK   25  A    between atoms: C28_54  and  C34_56
REMARK                            x       y       z     vdW  Elec       q    Type
REMARK                         _______ _______ _______ _____ _____    ______ ____
ROOT
ATOM      1  C25 UNK     0      -0.615  -0.213   1.120  0.00  0.00    +0.000 C 
ENDROOT
BRANCH   1   2
ATOM      2  N10 UNK     0       0.745   0.200   0.757  0.00  0.00    +0.000 N 
ATOM      3  H77 UNK     0       1.040   1.179   0.971  0.00  0.00    +0.000 HD
ATOM      4  C31 UNK     0       1.724  -0.708   0.212  0.00  0.00    +0.000 C 
ATOM      5  O6  UNK     0       1.393  -1.886  -0.094  0.00  0.00    +0.000 OA
BRANCH   4   6
ATOM      6  C30 UNK     0       3.163  -0.267   0.059  0.00  0.00    +0.000 C 
BRANCH   6   7
ATOM      7  N11 UNK     0       4.034  -1.376  -0.348  0.00  0.00    +0.000 N 
ATOM      8  C41 UNK     0       4.050  -1.966  -1.662  0.00  0.00    +0.000 C 
ATOM      9  O7  UNK     0       3.106  -1.756  -2.471  0.00  0.00    +0.000 OA
ATOM     10  H87 UNK     0       4.806  -1.633   0.308  0.00  0.00    +0.000 HD
BRANCH   8  11
ATOM     11  C36 UNK     0       5.232  -2.774  -2.098  0.00  0.00    +0.000 C 
BRANCH  11  12
ATOM     12  N12 UNK     0       5.463  -3.866  -1.125  0.00  0.00    +0.000 NA
ATOM     13  C39 UNK     0       6.823  -3.820  -0.557  0.00  0.00    +0.000 C 
ATOM     14  C42 UNK     0       6.985  -4.919   0.513  0.00  0.00    +0.000 C 
ATOM     15  O5  UNK     0       5.876  -5.800   0.554  0.00  0.00    +0.000 OA
ATOM     16  C43 UNK     0       5.628  -6.316  -0.739  0.00  0.00    +0.000 C 
ATOM     17  C40 UNK     0       5.209  -5.195  -1.714  0.00  0.00    +0.000 C 
ENDBRANCH  11  12
ENDBRANCH   8  11
ENDBRANCH   6   7
BRANCH   6  18
ATOM     18  C32 UNK     0       3.294   0.936  -0.898  0.00  0.00    +0.000 C 
BRANCH  18  19
ATOM     19  C35 UNK     0       4.739   1.445  -0.979  0.00  0.00    +0.000 C 
BRANCH  19  20
ATOM     20  C44 UNK     0       4.805   2.693  -1.813  0.00  0.00    +0.000 A 
ATOM     21  C49 UNK     0       4.642   3.955  -1.213  0.00  0.00    +0.000 A 
ATOM     22  C51 UNK     0       4.665   5.114  -1.996  0.00  0.00    +0.000 A 
ATOM     23  C52 UNK     0       4.830   5.019  -3.382  0.00  0.00    +0.000 A 
ATOM     24  C50 UNK     0       4.957   3.767  -3.987  0.00  0.00    +0.000 A 
ATOM     25  C48 UNK     0       4.942   2.606  -3.207  0.00  0.00    +0.000 A 
ENDBRANCH  19  20
ENDBRANCH  18  19
ENDBRANCH   6  18
ENDBRANCH   4   6
ENDBRANCH   1   2
BRANCH   1  26
ATOM     26  C27 UNK     0      -1.607   0.893   0.796  0.00  0.00    +0.000 C 
ATOM     27  N9  UNK     0      -2.667   1.295   1.694  0.00  0.00    +0.000 N 
ATOM     28  H73 UNK     0      -2.741   0.867   2.640  0.00  0.00    +0.000 HD
ATOM     29  O4  UNK     0      -1.565   1.385  -0.363  0.00  0.00    +0.000 OA
BRANCH  27  30
ATOM     30  C21 UNK     0      -3.800   2.152   1.306  0.00  0.00    +0.000 C 
BRANCH  30  31
ATOM     31  C20 UNK     0      -4.672   1.494   0.258  0.00  0.00    +0.000 C 
ATOM     32  N8  UNK     0      -4.533   0.097  -0.073  0.00  0.00    +0.000 N 
ATOM     33  H62 UNK     0      -3.882  -0.505   0.487  0.00  0.00    +0.000 HD
ATOM     34  O3  UNK     0      -5.584   2.179  -0.289  0.00  0.00    +0.000 OA
BRANCH  32  35
ATOM     35  C15 UNK     0      -5.248  -0.497  -1.208  0.00  0.00    +0.000 C 
BRANCH  35  36
ATOM     36  C16 UNK     0      -4.403  -1.561  -1.879  0.00  0.00    +0.000 C 
ATOM     37  O2  UNK     0      -3.982  -2.511  -1.238  0.00  0.00    +0.000 OA
BRANCH  36  38
ATOM     38  C13 UNK     0      -4.029  -1.417  -3.331  0.00  0.00    +0.000 C 
ATOM     39  O1  UNK     0      -2.946  -2.226  -3.728  0.00  0.00    +0.000 OA
ATOM     40  C14 UNK     0      -2.693  -0.839  -3.619  0.00  0.00    +0.000 C 
ATOM     41  C17 UNK     0      -5.117  -1.301  -4.395  0.00  0.00    +0.000 C 
ENDBRANCH  36  38
ENDBRANCH  35  36
BRANCH  35  42
ATOM     42  C18 UNK     0      -6.662  -0.976  -0.802  0.00  0.00    +0.000 C 
BRANCH  42  43
ATOM     43  C19 UNK     0      -6.771  -2.283   0.024  0.00  0.00    +0.000 C 
ATOM     44  C23 UNK     0      -8.253  -2.625   0.240  0.00  0.00    +0.000 C 
ATOM     45  C22 UNK     0      -6.069  -2.192   1.387  0.00  0.00    +0.000 C 
ENDBRANCH  42  43
ENDBRANCH  35  42
ENDBRANCH  32  35
ENDBRANCH  30  31
BRANCH  30  46
ATOM     46  C24 UNK     0      -3.338   3.557   0.849  0.00  0.00    +0.000 C 
BRANCH  46  47
ATOM     47  C29 UNK     0      -2.496   4.247   1.893  0.00  0.00    +0.000 A 
ATOM     48  C37 UNK     0      -1.095   4.233   1.804  0.00  0.00    +0.000 A 
ATOM     49  C45 UNK     0      -0.321   4.867   2.781  0.00  0.00    +0.000 A 
ATOM     50  C47 UNK     0      -0.939   5.518   3.854  0.00  0.00    +0.000 A 
ATOM     51  C46 UNK     0      -2.333   5.538   3.949  0.00  0.00    +0.000 A 
ATOM     52  C38 UNK     0      -3.109   4.905   2.973  0.00  0.00    +0.000 A 
ENDBRANCH  46  47
ENDBRANCH  30  46
ENDBRANCH  27  30
ENDBRANCH   1  26
BRANCH   1  53
ATOM     53  C26 UNK     0      -0.667  -0.826   2.547  0.00  0.00    +0.000 C 
BRANCH  53  54
ATOM     54  C28 UNK     0       0.071  -0.103   3.718  0.00  0.00    +0.000 C 
ATOM     55  C33 UNK     0      -0.195   1.404   3.834  0.00  0.00    +0.000 C 
ATOM     56  C34 UNK     0       1.583  -0.380   3.726  0.00  0.00    +0.000 C 
ENDBRANCH  53  54
ENDBRANCH   1  53
TORSDOF 20
