REMARK  Name = C:\Users\Maximilian\Desktop\Conformers\converted_pdb\conformers_pdb\TAK_242_conf_96.pdb
REMARK  25 active torsions:
REMARK  status: ('A' for Active; 'I' for Inactive)
REMARK    1  A    between atoms: C25_1  and  N10_2
REMARK    2  A    between atoms: C25_1  and  C27_26
REMARK    3  A    between atoms: C25_1  and  C26_53
REMARK    4  A    between atoms: C31_4  and  C30_6
REMARK    5  A    between atoms: C30_6  and  C32_7
REMARK    6  A    between atoms: C30_6  and  N11_15
REMARK    7  A    between atoms: C32_7  and  C35_8
REMARK    8  A    between atoms: C35_8  and  C44_9
REMARK    9  A    between atoms: C41_16  and  C36_19
REMARK   10  A    between atoms: C36_19  and  N12_20
REMARK   11  A    between atoms: N9_27  and  C21_30
REMARK   12  A    between atoms: C21_30  and  C24_31
REMARK   13  A    between atoms: C21_30  and  C20_38
REMARK   14  A    between atoms: C24_31  and  C29_32
REMARK   15  A    between atoms: N8_39  and  C15_42
REMARK   16  A    between atoms: C15_42  and  C18_43
REMARK   17  A    between atoms: C15_42  and  C16_47
REMARK   18  A    between atoms: C18_43  and  C19_44
REMARK   19  A    between atoms: C19_44  and  C23_45
REMARK   20  A    between atoms: C19_44  and  C22_46
REMARK   21  A    between atoms: C16_47  and  C13_49
REMARK   22  A    between atoms: C13_49  and  C17_52
REMARK   23  A    between atoms: C26_53  and  C28_54
REMARK   24  A    between atoms: C28_54  and  C33_55
REMARK   25  A    between atoms: C28_54  and  C34_56
REMARK                            x       y       z     vdW  Elec       q    Type
REMARK                         _______ _______ _______ _____ _____    ______ ____
ROOT
ATOM      1  C25 UNK     0       0.019   0.231  -1.576  0.00  0.00    +0.000 C 
ENDROOT
BRANCH   1   2
ATOM      2  N10 UNK     0       1.118   0.496  -0.640  0.00  0.00    +0.000 N 
ATOM      3  H77 UNK     0       1.480  -0.308  -0.079  0.00  0.00    +0.000 HD
ATOM      4  C31 UNK     0       1.838   1.740  -0.628  0.00  0.00    +0.000 C 
ATOM      5  O6  UNK     0       1.271   2.790  -1.037  0.00  0.00    +0.000 OA
BRANCH   4   6
ATOM      6  C30 UNK     0       3.247   1.825  -0.079  0.00  0.00    +0.000 C 
BRANCH   6   7
ATOM      7  N11 UNK     0       3.845   0.487  -0.005  0.00  0.00    +0.000 N 
ATOM      8  C41 UNK     0       4.337  -0.098   1.208  0.00  0.00    +0.000 C 
ATOM      9  O7  UNK     0       4.218   0.520   2.299  0.00  0.00    +0.000 OA
ATOM     10  H87 UNK     0       3.958  -0.053  -0.891  0.00  0.00    +0.000 HD
BRANCH   8  11
ATOM     11  C36 UNK     0       5.004  -1.454   1.134  0.00  0.00    +0.000 C 
BRANCH  11  12
ATOM     12  N12 UNK     0       5.542  -1.979   2.407  0.00  0.00    +0.000 NA
ATOM     13  C39 UNK     0       4.524  -2.279   3.428  0.00  0.00    +0.000 C 
ATOM     14  C42 UNK     0       5.173  -3.050   4.599  0.00  0.00    +0.000 C 
ATOM     15  O5  UNK     0       6.589  -3.068   4.521  0.00  0.00    +0.000 OA
ATOM     16  C43 UNK     0       7.079  -1.757   4.336  0.00  0.00    +0.000 C 
ATOM     17  C40 UNK     0       6.689  -1.223   2.945  0.00  0.00    +0.000 C 
ENDBRANCH  11  12
ENDBRANCH   8  11
ENDBRANCH   6   7
BRANCH   6  18
ATOM     18  C32 UNK     0       4.124   2.725  -0.971  0.00  0.00    +0.000 C 
BRANCH  18  19
ATOM     19  C35 UNK     0       5.547   2.887  -0.417  0.00  0.00    +0.000 C 
BRANCH  19  20
ATOM     20  C44 UNK     0       6.384   3.710  -1.358  0.00  0.00    +0.000 A 
ATOM     21  C49 UNK     0       7.009   3.103  -2.460  0.00  0.00    +0.000 A 
ATOM     22  C51 UNK     0       7.762   3.869  -3.355  0.00  0.00    +0.000 A 
ATOM     23  C52 UNK     0       7.887   5.248  -3.164  0.00  0.00    +0.000 A 
ATOM     24  C50 UNK     0       7.257   5.862  -2.078  0.00  0.00    +0.000 A 
ATOM     25  C48 UNK     0       6.500   5.099  -1.182  0.00  0.00    +0.000 A 
ENDBRANCH  19  20
ENDBRANCH  18  19
ENDBRANCH   6  18
ENDBRANCH   4   6
ENDBRANCH   1   2
BRANCH   1  26
ATOM     26  C27 UNK     0      -1.174  -0.334  -0.846  0.00  0.00    +0.000 C 
ATOM     27  N9  UNK     0      -2.427  -0.464  -1.541  0.00  0.00    +0.000 N 
ATOM     28  H73 UNK     0      -2.494  -0.067  -2.505  0.00  0.00    +0.000 HD
ATOM     29  O4  UNK     0      -1.064  -0.713   0.353  0.00  0.00    +0.000 OA
BRANCH  27  30
ATOM     30  C21 UNK     0      -3.614  -1.161  -1.023  0.00  0.00    +0.000 C 
BRANCH  30  31
ATOM     31  C20 UNK     0      -4.292  -0.367   0.065  0.00  0.00    +0.000 C 
ATOM     32  N8  UNK     0      -5.706  -0.502   0.271  0.00  0.00    +0.000 N 
ATOM     33  H62 UNK     0      -6.228  -1.189  -0.320  0.00  0.00    +0.000 HD
ATOM     34  O3  UNK     0      -3.616   0.392   0.815  0.00  0.00    +0.000 OA
BRANCH  32  35
ATOM     35  C15 UNK     0      -6.398   0.139   1.392  0.00  0.00    +0.000 C 
BRANCH  35  36
ATOM     36  C16 UNK     0      -7.836   0.400   1.007  0.00  0.00    +0.000 C 
ATOM     37  O2  UNK     0      -8.635  -0.524   0.959  0.00  0.00    +0.000 OA
BRANCH  36  38
ATOM     38  C13 UNK     0      -8.289   1.795   0.681  0.00  0.00    +0.000 C 
ATOM     39  O1  UNK     0      -9.417   1.822  -0.165  0.00  0.00    +0.000 OA
ATOM     40  C14 UNK     0      -8.188   2.230  -0.733  0.00  0.00    +0.000 C 
ATOM     41  C17 UNK     0      -8.350   2.858   1.774  0.00  0.00    +0.000 C 
ENDBRANCH  36  38
ENDBRANCH  35  36
BRANCH  35  42
ATOM     42  C18 UNK     0      -6.289  -0.757   2.645  0.00  0.00    +0.000 C 
BRANCH  42  43
ATOM     43  C19 UNK     0      -6.932  -0.152   3.917  0.00  0.00    +0.000 C 
ATOM     44  C23 UNK     0      -6.124   1.036   4.459  0.00  0.00    +0.000 C 
ATOM     45  C22 UNK     0      -7.055  -1.229   5.002  0.00  0.00    +0.000 C 
ENDBRANCH  42  43
ENDBRANCH  35  42
ENDBRANCH  32  35
ENDBRANCH  30  31
BRANCH  30  46
ATOM     46  C24 UNK     0      -3.303  -2.596  -0.545  0.00  0.00    +0.000 C 
BRANCH  46  47
ATOM     47  C29 UNK     0      -2.503  -3.376  -1.560  0.00  0.00    +0.000 A 
ATOM     48  C37 UNK     0      -1.162  -3.707  -1.306  0.00  0.00    +0.000 A 
ATOM     49  C45 UNK     0      -0.413  -4.406  -2.259  0.00  0.00    +0.000 A 
ATOM     50  C47 UNK     0      -0.998  -4.780  -3.471  0.00  0.00    +0.000 A 
ATOM     51  C46 UNK     0      -2.333  -4.461  -3.729  0.00  0.00    +0.000 A 
ATOM     52  C38 UNK     0      -3.085  -3.761  -2.780  0.00  0.00    +0.000 A 
ENDBRANCH  46  47
ENDBRANCH  30  46
ENDBRANCH  27  30
ENDBRANCH   1  26
BRANCH   1  53
ATOM     53  C26 UNK     0       0.484  -0.753  -2.672  0.00  0.00    +0.000 C 
BRANCH  53  54
ATOM     54  C28 UNK     0       1.640  -0.216  -3.551  0.00  0.00    +0.000 C 
ATOM     55  C33 UNK     0       1.215   1.001  -4.390  0.00  0.00    +0.000 C 
ATOM     56  C34 UNK     0       2.148  -1.330  -4.476  0.00  0.00    +0.000 C 
ENDBRANCH  53  54
ENDBRANCH   1  53
TORSDOF 20
