REMARK  Name = C:\Users\Maximilian\Desktop\Conformers\converted_pdb\conformers_pdb\TAK_242_conf_15.pdb
REMARK  25 active torsions:
REMARK  status: ('A' for Active; 'I' for Inactive)
REMARK    1  A    between atoms: C25_1  and  N10_2
REMARK    2  A    between atoms: C25_1  and  C27_26
REMARK    3  A    between atoms: C25_1  and  C26_53
REMARK    4  A    between atoms: C31_4  and  C30_6
REMARK    5  A    between atoms: C30_6  and  C32_7
REMARK    6  A    between atoms: C30_6  and  N11_15
REMARK    7  A    between atoms: C32_7  and  C35_8
REMARK    8  A    between atoms: C35_8  and  C44_9
REMARK    9  A    between atoms: C41_16  and  C36_19
REMARK   10  A    between atoms: C36_19  and  N12_20
REMARK   11  A    between atoms: N9_27  and  C21_30
REMARK   12  A    between atoms: C21_30  and  C24_31
REMARK   13  A    between atoms: C21_30  and  C20_38
REMARK   14  A    between atoms: C24_31  and  C29_32
REMARK   15  A    between atoms: N8_39  and  C15_42
REMARK   16  A    between atoms: C15_42  and  C18_43
REMARK   17  A    between atoms: C15_42  and  C16_47
REMARK   18  A    between atoms: C18_43  and  C19_44
REMARK   19  A    between atoms: C19_44  and  C23_45
REMARK   20  A    between atoms: C19_44  and  C22_46
REMARK   21  A    between atoms: C16_47  and  C13_49
REMARK   22  A    between atoms: C13_49  and  C17_52
REMARK   23  A    between atoms: C26_53  and  C28_54
REMARK   24  A    between atoms: C28_54  and  C33_55
REMARK   25  A    between atoms: C28_54  and  C34_56
REMARK                            x       y       z     vdW  Elec       q    Type
REMARK                         _______ _______ _______ _____ _____    ______ ____
ROOT
ATOM      1  C25 UNK     0       0.647   0.402  -0.796  0.00  0.00    +0.000 C 
ENDROOT
BRANCH   1   2
ATOM      2  N10 UNK     0       2.034   0.464  -0.315  0.00  0.00    +0.000 N 
ATOM      3  H77 UNK     0       2.612  -0.405  -0.301  0.00  0.00    +0.000 HD
ATOM      4  C31 UNK     0       2.694   1.727  -0.111  0.00  0.00    +0.000 C 
ATOM      5  O6  UNK     0       2.026   2.798  -0.135  0.00  0.00    +0.000 OA
BRANCH   4   6
ATOM      6  C30 UNK     0       4.194   1.819   0.037  0.00  0.00    +0.000 C 
BRANCH   6   7
ATOM      7  N11 UNK     0       4.756   0.646   0.721  0.00  0.00    +0.000 N 
ATOM      8  C41 UNK     0       4.452   0.332   2.089  0.00  0.00    +0.000 C 
ATOM      9  O7  UNK     0       3.493   0.900   2.674  0.00  0.00    +0.000 OA
ATOM     10  H87 UNK     0       5.556   0.138   0.278  0.00  0.00    +0.000 HD
BRANCH   8  11
ATOM     11  C36 UNK     0       5.314  -0.632   2.852  0.00  0.00    +0.000 C 
BRANCH  11  12
ATOM     12  N12 UNK     0       5.542  -1.860   2.060  0.00  0.00    +0.000 NA
ATOM     13  C39 UNK     0       6.780  -2.556   2.467  0.00  0.00    +0.000 C 
ATOM     14  C42 UNK     0       6.630  -3.240   3.847  0.00  0.00    +0.000 C 
ATOM     15  O5  UNK     0       5.278  -3.397   4.247  0.00  0.00    +0.000 OA
ATOM     16  C43 UNK     0       4.505  -3.865   3.162  0.00  0.00    +0.000 C 
ATOM     17  C40 UNK     0       4.374  -2.773   2.086  0.00  0.00    +0.000 C 
ENDBRANCH  11  12
ENDBRANCH   8  11
ENDBRANCH   6   7
BRANCH   6  18
ATOM     18  C32 UNK     0       4.872   2.063  -1.330  0.00  0.00    +0.000 C 
BRANCH  18  19
ATOM     19  C35 UNK     0       4.582   0.980  -2.383  0.00  0.00    +0.000 C 
BRANCH  19  20
ATOM     20  C44 UNK     0       5.312   1.286  -3.663  0.00  0.00    +0.000 A 
ATOM     21  C49 UNK     0       6.593   0.759  -3.890  0.00  0.00    +0.000 A 
ATOM     22  C51 UNK     0       7.290   1.083  -5.059  0.00  0.00    +0.000 A 
ATOM     23  C52 UNK     0       6.718   1.939  -6.002  0.00  0.00    +0.000 A 
ATOM     24  C50 UNK     0       5.451   2.481  -5.774  0.00  0.00    +0.000 A 
ATOM     25  C48 UNK     0       4.749   2.162  -4.607  0.00  0.00    +0.000 A 
ENDBRANCH  19  20
ENDBRANCH  18  19
ENDBRANCH   6  18
ENDBRANCH   4   6
ENDBRANCH   1   2
BRANCH   1  26
ATOM     26  C27 UNK     0      -0.308   1.061   0.170  0.00  0.00    +0.000 C 
ATOM     27  N9  UNK     0      -1.434   1.793  -0.329  0.00  0.00    +0.000 N 
ATOM     28  H73 UNK     0      -1.582   1.832  -1.365  0.00  0.00    +0.000 HD
ATOM     29  O4  UNK     0      -0.124   0.951   1.415  0.00  0.00    +0.000 OA
BRANCH  27  30
ATOM     30  C21 UNK     0      -2.433   2.397   0.555  0.00  0.00    +0.000 C 
BRANCH  30  31
ATOM     31  C20 UNK     0      -3.398   1.350   1.055  0.00  0.00    +0.000 C 
ATOM     32  N8  UNK     0      -3.770   0.242   0.225  0.00  0.00    +0.000 N 
ATOM     33  H62 UNK     0      -3.045  -0.181  -0.398  0.00  0.00    +0.000 HD
ATOM     34  O3  UNK     0      -3.927   1.492   2.193  0.00  0.00    +0.000 OA
BRANCH  32  35
ATOM     35  C15 UNK     0      -5.080  -0.407   0.325  0.00  0.00    +0.000 C 
BRANCH  35  36
ATOM     36  C16 UNK     0      -5.675  -0.613  -1.056  0.00  0.00    +0.000 C 
ATOM     37  O2  UNK     0      -6.889  -0.575  -1.190  0.00  0.00    +0.000 OA
BRANCH  36  38
ATOM     38  C13 UNK     0      -4.819  -0.810  -2.280  0.00  0.00    +0.000 C 
ATOM     39  O1  UNK     0      -5.304  -1.853  -3.093  0.00  0.00    +0.000 OA
ATOM     40  C14 UNK     0      -4.075  -2.085  -2.438  0.00  0.00    +0.000 C 
ATOM     41  C17 UNK     0      -4.402   0.405  -3.107  0.00  0.00    +0.000 C 
ENDBRANCH  36  38
ENDBRANCH  35  36
BRANCH  35  42
ATOM     42  C18 UNK     0      -4.950  -1.715   1.130  0.00  0.00    +0.000 C 
BRANCH  42  43
ATOM     43  C19 UNK     0      -6.316  -2.394   1.439  0.00  0.00    +0.000 C 
ATOM     44  C23 UNK     0      -6.344  -2.941   2.873  0.00  0.00    +0.000 C 
ATOM     45  C22 UNK     0      -6.615  -3.532   0.449  0.00  0.00    +0.000 C 
ENDBRANCH  42  43
ENDBRANCH  35  42
ENDBRANCH  32  35
ENDBRANCH  30  31
BRANCH  30  46
ATOM     46  C24 UNK     0      -3.184   3.511  -0.196  0.00  0.00    +0.000 C 
BRANCH  46  47
ATOM     47  C29 UNK     0      -4.079   4.303   0.723  0.00  0.00    +0.000 A 
ATOM     48  C37 UNK     0      -5.458   4.043   0.767  0.00  0.00    +0.000 A 
ATOM     49  C45 UNK     0      -6.284   4.771   1.628  0.00  0.00    +0.000 A 
ATOM     50  C47 UNK     0      -5.742   5.768   2.444  0.00  0.00    +0.000 A 
ATOM     51  C46 UNK     0      -4.367   6.025   2.413  0.00  0.00    +0.000 A 
ATOM     52  C38 UNK     0      -3.537   5.294   1.558  0.00  0.00    +0.000 A 
ENDBRANCH  46  47
ENDBRANCH  30  46
ENDBRANCH  27  30
ENDBRANCH   1  26
BRANCH   1  53
ATOM     53  C26 UNK     0       0.212  -1.040  -1.167  0.00  0.00    +0.000 C 
BRANCH  53  54
ATOM     54  C28 UNK     0      -0.214  -1.959   0.007  0.00  0.00    +0.000 C 
ATOM     55  C33 UNK     0       0.940  -2.254   0.968  0.00  0.00    +0.000 C 
ATOM     56  C34 UNK     0      -0.769  -3.278  -0.539  0.00  0.00    +0.000 C 
ENDBRANCH  53  54
ENDBRANCH   1  53
TORSDOF 20
