REMARK  Name = C:\Users\Maximilian\Desktop\Conformers\converted_pdb\conformers_pdb\TAK_242_conf_98.pdb
REMARK  25 active torsions:
REMARK  status: ('A' for Active; 'I' for Inactive)
REMARK    1  A    between atoms: C25_1  and  N10_2
REMARK    2  A    between atoms: C25_1  and  C27_26
REMARK    3  A    between atoms: C25_1  and  C26_53
REMARK    4  A    between atoms: C31_4  and  C30_6
REMARK    5  A    between atoms: C30_6  and  C32_7
REMARK    6  A    between atoms: C30_6  and  N11_15
REMARK    7  A    between atoms: C32_7  and  C35_8
REMARK    8  A    between atoms: C35_8  and  C44_9
REMARK    9  A    between atoms: C41_16  and  C36_19
REMARK   10  A    between atoms: C36_19  and  N12_20
REMARK   11  A    between atoms: N9_27  and  C21_30
REMARK   12  A    between atoms: C21_30  and  C24_31
REMARK   13  A    between atoms: C21_30  and  C20_38
REMARK   14  A    between atoms: C24_31  and  C29_32
REMARK   15  A    between atoms: N8_39  and  C15_42
REMARK   16  A    between atoms: C15_42  and  C18_43
REMARK   17  A    between atoms: C15_42  and  C16_47
REMARK   18  A    between atoms: C18_43  and  C19_44
REMARK   19  A    between atoms: C19_44  and  C23_45
REMARK   20  A    between atoms: C19_44  and  C22_46
REMARK   21  A    between atoms: C16_47  and  C13_49
REMARK   22  A    between atoms: C13_49  and  C17_52
REMARK   23  A    between atoms: C26_53  and  C28_54
REMARK   24  A    between atoms: C28_54  and  C33_55
REMARK   25  A    between atoms: C28_54  and  C34_56
REMARK                            x       y       z     vdW  Elec       q    Type
REMARK                         _______ _______ _______ _____ _____    ______ ____
ROOT
ATOM      1  C25 UNK     0      -0.460   0.559  -1.251  0.00  0.00    +0.000 C 
ENDROOT
BRANCH   1   2
ATOM      2  N10 UNK     0      -1.639   0.973  -0.481  0.00  0.00    +0.000 N 
ATOM      3  H77 UNK     0      -1.507   1.475   0.428  0.00  0.00    +0.000 HD
ATOM      4  C31 UNK     0      -2.980   0.723  -0.925  0.00  0.00    +0.000 C 
ATOM      5  O6  UNK     0      -3.191   0.332  -2.105  0.00  0.00    +0.000 OA
BRANCH   4   6
ATOM      6  C30 UNK     0      -4.120   0.832   0.064  0.00  0.00    +0.000 C 
BRANCH   6   7
ATOM      7  N11 UNK     0      -5.430   0.938  -0.604  0.00  0.00    +0.000 N 
ATOM      8  C41 UNK     0      -6.643   1.195   0.119  0.00  0.00    +0.000 C 
ATOM      9  O7  UNK     0      -6.609   1.492   1.340  0.00  0.00    +0.000 OA
ATOM     10  H87 UNK     0      -5.509   0.787  -1.635  0.00  0.00    +0.000 HD
BRANCH   8  11
ATOM     11  C36 UNK     0      -7.973   1.069  -0.570  0.00  0.00    +0.000 C 
BRANCH  11  12
ATOM     12  N12 UNK     0      -8.576   2.370  -0.935  0.00  0.00    +0.000 NA
ATOM     13  C39 UNK     0      -7.791   3.201  -1.870  0.00  0.00    +0.000 C 
ATOM     14  C42 UNK     0      -6.968   4.269  -1.135  0.00  0.00    +0.000 C 
ATOM     15  O5  UNK     0      -7.803   5.039  -0.293  0.00  0.00    +0.000 OA
ATOM     16  C43 UNK     0      -8.307   4.219   0.741  0.00  0.00    +0.000 C 
ATOM     17  C40 UNK     0      -9.213   3.115   0.175  0.00  0.00    +0.000 C 
ENDBRANCH  11  12
ENDBRANCH   8  11
ENDBRANCH   6   7
BRANCH   6  18
ATOM     18  C32 UNK     0      -4.081  -0.359   1.045  0.00  0.00    +0.000 C 
BRANCH  18  19
ATOM     19  C35 UNK     0      -4.388  -1.705   0.369  0.00  0.00    +0.000 C 
BRANCH  19  20
ATOM     20  C44 UNK     0      -4.436  -2.802   1.397  0.00  0.00    +0.000 A 
ATOM     21  C49 UNK     0      -3.277  -3.530   1.715  0.00  0.00    +0.000 A 
ATOM     22  C51 UNK     0      -3.321  -4.521   2.702  0.00  0.00    +0.000 A 
ATOM     23  C52 UNK     0      -4.514  -4.781   3.385  0.00  0.00    +0.000 A 
ATOM     24  C50 UNK     0      -5.666  -4.047   3.087  0.00  0.00    +0.000 A 
ATOM     25  C48 UNK     0      -5.628  -3.062   2.096  0.00  0.00    +0.000 A 
ENDBRANCH  19  20
ENDBRANCH  18  19
ENDBRANCH   6  18
ENDBRANCH   4   6
ENDBRANCH   1   2
BRANCH   1  26
ATOM     26  C27 UNK     0       0.532  -0.111  -0.332  0.00  0.00    +0.000 C 
ATOM     27  N9  UNK     0       1.180  -1.327  -0.736  0.00  0.00    +0.000 N 
ATOM     28  H73 UNK     0       0.850  -1.780  -1.613  0.00  0.00    +0.000 HD
ATOM     29  O4  UNK     0       0.836   0.435   0.763  0.00  0.00    +0.000 OA
BRANCH  27  30
ATOM     30  C21 UNK     0       2.197  -1.989   0.092  0.00  0.00    +0.000 C 
BRANCH  30  31
ATOM     31  C20 UNK     0       3.379  -1.081   0.336  0.00  0.00    +0.000 C 
ATOM     32  N8  UNK     0       4.167  -1.238   1.528  0.00  0.00    +0.000 N 
ATOM     33  H62 UNK     0       3.870  -1.948   2.236  0.00  0.00    +0.000 HD
ATOM     34  O3  UNK     0       3.698  -0.219  -0.531  0.00  0.00    +0.000 OA
BRANCH  32  35
ATOM     35  C15 UNK     0       5.367  -0.441   1.800  0.00  0.00    +0.000 C 
BRANCH  35  36
ATOM     36  C16 UNK     0       5.084   0.454   2.983  0.00  0.00    +0.000 C 
ATOM     37  O2  UNK     0       5.218   0.029   4.122  0.00  0.00    +0.000 OA
BRANCH  36  38
ATOM     38  C13 UNK     0       4.586   1.860   2.766  0.00  0.00    +0.000 C 
ATOM     39  O1  UNK     0       4.033   2.410   3.941  0.00  0.00    +0.000 OA
ATOM     40  C14 UNK     0       3.128   2.104   2.898  0.00  0.00    +0.000 C 
ATOM     41  C17 UNK     0       5.434   2.882   2.006  0.00  0.00    +0.000 C 
ENDBRANCH  36  38
ENDBRANCH  35  36
BRANCH  35  42
ATOM     42  C18 UNK     0       6.571  -1.392   2.024  0.00  0.00    +0.000 C 
BRANCH  42  43
ATOM     43  C19 UNK     0       7.978  -0.740   2.023  0.00  0.00    +0.000 C 
ATOM     44  C23 UNK     0       8.261   0.079   3.289  0.00  0.00    +0.000 C 
ATOM     45  C22 UNK     0       8.257   0.083   0.759  0.00  0.00    +0.000 C 
ENDBRANCH  42  43
ENDBRANCH  35  42
ENDBRANCH  32  35
ENDBRANCH  30  31
BRANCH  30  46
ATOM     46  C24 UNK     0       2.650  -3.328  -0.529  0.00  0.00    +0.000 C 
BRANCH  46  47
ATOM     47  C29 UNK     0       3.340  -3.172  -1.866  0.00  0.00    +0.000 A 
ATOM     48  C37 UNK     0       4.714  -2.883  -1.920  0.00  0.00    +0.000 A 
ATOM     49  C45 UNK     0       5.352  -2.707  -3.149  0.00  0.00    +0.000 A 
ATOM     50  C47 UNK     0       4.628  -2.821  -4.338  0.00  0.00    +0.000 A 
ATOM     51  C46 UNK     0       3.264  -3.115  -4.297  0.00  0.00    +0.000 A 
ATOM     52  C38 UNK     0       2.620  -3.298  -3.069  0.00  0.00    +0.000 A 
ENDBRANCH  46  47
ENDBRANCH  30  46
ENDBRANCH  27  30
ENDBRANCH   1  26
BRANCH   1  53
ATOM     53  C26 UNK     0       0.157   1.792  -1.940  0.00  0.00    +0.000 C 
BRANCH  53  54
ATOM     54  C28 UNK     0       1.398   1.477  -2.812  0.00  0.00    +0.000 C 
ATOM     55  C33 UNK     0       2.076   2.780  -3.252  0.00  0.00    +0.000 C 
ATOM     56  C34 UNK     0       1.040   0.627  -4.042  0.00  0.00    +0.000 C 
ENDBRANCH  53  54
ENDBRANCH   1  53
TORSDOF 20
