REMARK  Name = C:\Users\Maximilian\Desktop\Conformers\converted_pdb\conformers_pdb\TAK_242_conf_10.pdb
REMARK  25 active torsions:
REMARK  status: ('A' for Active; 'I' for Inactive)
REMARK    1  A    between atoms: C25_1  and  N10_2
REMARK    2  A    between atoms: C25_1  and  C27_26
REMARK    3  A    between atoms: C25_1  and  C26_53
REMARK    4  A    between atoms: C31_4  and  C30_6
REMARK    5  A    between atoms: C30_6  and  C32_7
REMARK    6  A    between atoms: C30_6  and  N11_15
REMARK    7  A    between atoms: C32_7  and  C35_8
REMARK    8  A    between atoms: C35_8  and  C44_9
REMARK    9  A    between atoms: C41_16  and  C36_19
REMARK   10  A    between atoms: C36_19  and  N12_20
REMARK   11  A    between atoms: N9_27  and  C21_30
REMARK   12  A    between atoms: C21_30  and  C24_31
REMARK   13  A    between atoms: C21_30  and  C20_38
REMARK   14  A    between atoms: C24_31  and  C29_32
REMARK   15  A    between atoms: N8_39  and  C15_42
REMARK   16  A    between atoms: C15_42  and  C18_43
REMARK   17  A    between atoms: C15_42  and  C16_47
REMARK   18  A    between atoms: C18_43  and  C19_44
REMARK   19  A    between atoms: C19_44  and  C23_45
REMARK   20  A    between atoms: C19_44  and  C22_46
REMARK   21  A    between atoms: C16_47  and  C13_49
REMARK   22  A    between atoms: C13_49  and  C17_52
REMARK   23  A    between atoms: C26_53  and  C28_54
REMARK   24  A    between atoms: C28_54  and  C33_55
REMARK   25  A    between atoms: C28_54  and  C34_56
REMARK                            x       y       z     vdW  Elec       q    Type
REMARK                         _______ _______ _______ _____ _____    ______ ____
ROOT
ATOM      1  C25 UNK     0       0.716   0.420  -0.496  0.00  0.00    +0.000 C 
ENDROOT
BRANCH   1   2
ATOM      2  N10 UNK     0       1.945  -0.049  -1.148  0.00  0.00    +0.000 N 
ATOM      3  H77 UNK     0       1.916  -0.893  -1.764  0.00  0.00    +0.000 HD
ATOM      4  C31 UNK     0       3.232   0.493  -0.819  0.00  0.00    +0.000 C 
ATOM      5  O6  UNK     0       3.316   1.550  -0.133  0.00  0.00    +0.000 OA
BRANCH   4   6
ATOM      6  C30 UNK     0       4.486  -0.235  -1.250  0.00  0.00    +0.000 C 
BRANCH   6   7
ATOM      7  N11 UNK     0       5.694   0.508  -0.863  0.00  0.00    +0.000 N 
ATOM      8  C41 UNK     0       6.063   1.750  -1.479  0.00  0.00    +0.000 C 
ATOM      9  O7  UNK     0       5.398   2.204  -2.450  0.00  0.00    +0.000 OA
ATOM     10  H87 UNK     0       6.337   0.115  -0.137  0.00  0.00    +0.000 HD
BRANCH   8  11
ATOM     11  C36 UNK     0       7.252   2.512  -0.975  0.00  0.00    +0.000 C 
BRANCH  11  12
ATOM     12  N12 UNK     0       7.108   2.774   0.474  0.00  0.00    +0.000 NA
ATOM     13  C39 UNK     0       6.173   3.889   0.758  0.00  0.00    +0.000 C 
ATOM     14  C42 UNK     0       6.894   5.242   0.914  0.00  0.00    +0.000 C 
ATOM     15  O5  UNK     0       8.093   5.252   0.169  0.00  0.00    +0.000 OA
ATOM     16  C43 UNK     0       9.029   4.357   0.743  0.00  0.00    +0.000 C 
ATOM     17  C40 UNK     0       8.412   2.991   1.130  0.00  0.00    +0.000 C 
ENDBRANCH  11  12
ENDBRANCH   8  11
ENDBRANCH   6   7
BRANCH   6  18
ATOM     18  C32 UNK     0       4.526  -1.678  -0.694  0.00  0.00    +0.000 C 
BRANCH  18  19
ATOM     19  C35 UNK     0       4.315  -1.768   0.828  0.00  0.00    +0.000 C 
BRANCH  19  20
ATOM     20  C44 UNK     0       4.333  -3.206   1.274  0.00  0.00    +0.000 A 
ATOM     21  C49 UNK     0       5.534  -3.806   1.683  0.00  0.00    +0.000 A 
ATOM     22  C51 UNK     0       5.555  -5.152   2.063  0.00  0.00    +0.000 A 
ATOM     23  C52 UNK     0       4.380  -5.909   2.024  0.00  0.00    +0.000 A 
ATOM     24  C50 UNK     0       3.185  -5.324   1.594  0.00  0.00    +0.000 A 
ATOM     25  C48 UNK     0       3.159  -3.977   1.219  0.00  0.00    +0.000 A 
ENDBRANCH  19  20
ENDBRANCH  18  19
ENDBRANCH   6  18
ENDBRANCH   4   6
ENDBRANCH   1   2
BRANCH   1  26
ATOM     26  C27 UNK     0      -0.320  -0.676  -0.423  0.00  0.00    +0.000 C 
ATOM     27  N9  UNK     0      -1.117  -0.824   0.761  0.00  0.00    +0.000 N 
ATOM     28  H73 UNK     0      -1.007  -0.120   1.527  0.00  0.00    +0.000 HD
ATOM     29  O4  UNK     0      -0.505  -1.442  -1.409  0.00  0.00    +0.000 OA
BRANCH  27  30
ATOM     30  C21 UNK     0      -2.152  -1.854   0.886  0.00  0.00    +0.000 C 
BRANCH  30  31
ATOM     31  C20 UNK     0      -3.406  -1.386   0.195  0.00  0.00    +0.000 C 
ATOM     32  N8  UNK     0      -4.032  -0.154   0.587  0.00  0.00    +0.000 N 
ATOM     33  H62 UNK     0      -3.555   0.434   1.308  0.00  0.00    +0.000 HD
ATOM     34  O3  UNK     0      -3.899  -2.085  -0.732  0.00  0.00    +0.000 OA
BRANCH  32  35
ATOM     35  C15 UNK     0      -5.160   0.425  -0.146  0.00  0.00    +0.000 C 
BRANCH  35  36
ATOM     36  C16 UNK     0      -6.071   1.124   0.847  0.00  0.00    +0.000 C 
ATOM     37  O2  UNK     0      -5.671   2.120   1.433  0.00  0.00    +0.000 OA
BRANCH  36  38
ATOM     38  C13 UNK     0      -7.445   0.596   1.176  0.00  0.00    +0.000 C 
ATOM     39  O1  UNK     0      -7.420  -0.076   2.418  0.00  0.00    +0.000 OA
ATOM     40  C14 UNK     0      -7.684  -0.870   1.286  0.00  0.00    +0.000 C 
ATOM     41  C17 UNK     0      -8.638   1.553   1.114  0.00  0.00    +0.000 C 
ENDBRANCH  36  38
ENDBRANCH  35  36
BRANCH  35  42
ATOM     42  C18 UNK     0      -4.623   1.386  -1.236  0.00  0.00    +0.000 C 
BRANCH  42  43
ATOM     43  C19 UNK     0      -5.486   1.426  -2.519  0.00  0.00    +0.000 C 
ATOM     44  C23 UNK     0      -4.793   2.285  -3.586  0.00  0.00    +0.000 C 
ATOM     45  C22 UNK     0      -6.899   1.958  -2.250  0.00  0.00    +0.000 C 
ENDBRANCH  42  43
ENDBRANCH  35  42
ENDBRANCH  32  35
ENDBRANCH  30  31
BRANCH  30  46
ATOM     46  C24 UNK     0      -2.411  -2.160   2.374  0.00  0.00    +0.000 C 
BRANCH  46  47
ATOM     47  C29 UNK     0      -3.403  -3.279   2.555  0.00  0.00    +0.000 A 
ATOM     48  C37 UNK     0      -2.993  -4.616   2.422  0.00  0.00    +0.000 A 
ATOM     49  C45 UNK     0      -3.920  -5.653   2.561  0.00  0.00    +0.000 A 
ATOM     50  C47 UNK     0      -5.264  -5.363   2.822  0.00  0.00    +0.000 A 
ATOM     51  C46 UNK     0      -5.681  -4.035   2.946  0.00  0.00    +0.000 A 
ATOM     52  C38 UNK     0      -4.755  -2.995   2.817  0.00  0.00    +0.000 A 
ENDBRANCH  46  47
ENDBRANCH  30  46
ENDBRANCH  27  30
ENDBRANCH   1  26
BRANCH   1  53
ATOM     53  C26 UNK     0       0.171   1.715  -1.146  0.00  0.00    +0.000 C 
BRANCH  53  54
ATOM     54  C28 UNK     0      -0.494   1.572  -2.541  0.00  0.00    +0.000 C 
ATOM     55  C33 UNK     0       0.502   1.141  -3.628  0.00  0.00    +0.000 C 
ATOM     56  C34 UNK     0      -1.141   2.910  -2.935  0.00  0.00    +0.000 C 
ENDBRANCH  53  54
ENDBRANCH   1  53
TORSDOF 20
