REMARK  Name = C:\Users\Maximilian\Desktop\Conformers\converted_pdb\conformers_pdb\TAK_242_conf_87.pdb
REMARK  25 active torsions:
REMARK  status: ('A' for Active; 'I' for Inactive)
REMARK    1  A    between atoms: C25_1  and  N10_2
REMARK    2  A    between atoms: C25_1  and  C27_26
REMARK    3  A    between atoms: C25_1  and  C26_53
REMARK    4  A    between atoms: C31_4  and  C30_6
REMARK    5  A    between atoms: C30_6  and  C32_7
REMARK    6  A    between atoms: C30_6  and  N11_15
REMARK    7  A    between atoms: C32_7  and  C35_8
REMARK    8  A    between atoms: C35_8  and  C44_9
REMARK    9  A    between atoms: C41_16  and  C36_19
REMARK   10  A    between atoms: C36_19  and  N12_20
REMARK   11  A    between atoms: N9_27  and  C21_30
REMARK   12  A    between atoms: C21_30  and  C24_31
REMARK   13  A    between atoms: C21_30  and  C20_38
REMARK   14  A    between atoms: C24_31  and  C29_32
REMARK   15  A    between atoms: N8_39  and  C15_42
REMARK   16  A    between atoms: C15_42  and  C18_43
REMARK   17  A    between atoms: C15_42  and  C16_47
REMARK   18  A    between atoms: C18_43  and  C19_44
REMARK   19  A    between atoms: C19_44  and  C23_45
REMARK   20  A    between atoms: C19_44  and  C22_46
REMARK   21  A    between atoms: C16_47  and  C13_49
REMARK   22  A    between atoms: C13_49  and  C17_52
REMARK   23  A    between atoms: C26_53  and  C28_54
REMARK   24  A    between atoms: C28_54  and  C33_55
REMARK   25  A    between atoms: C28_54  and  C34_56
REMARK                            x       y       z     vdW  Elec       q    Type
REMARK                         _______ _______ _______ _____ _____    ______ ____
ROOT
ATOM      1  C25 UNK     0      -0.398   1.421   0.471  0.00  0.00    +0.000 C 
ENDROOT
BRANCH   1   2
ATOM      2  N10 UNK     0      -1.495   0.456   0.649  0.00  0.00    +0.000 N 
ATOM      3  H77 UNK     0      -1.272  -0.560   0.698  0.00  0.00    +0.000 HD
ATOM      4  C31 UNK     0      -2.865   0.865   0.785  0.00  0.00    +0.000 C 
ATOM      5  O6  UNK     0      -3.157   2.088   0.688  0.00  0.00    +0.000 OA
BRANCH   4   6
ATOM      6  C30 UNK     0      -3.950  -0.127   1.169  0.00  0.00    +0.000 C 
BRANCH   6   7
ATOM      7  N11 UNK     0      -5.287   0.459   0.986  0.00  0.00    +0.000 N 
ATOM      8  C41 UNK     0      -5.841   0.786  -0.298  0.00  0.00    +0.000 C 
ATOM      9  O7  UNK     0      -5.095   0.917  -1.304  0.00  0.00    +0.000 OA
ATOM     10  H87 UNK     0      -5.905   0.537   1.825  0.00  0.00    +0.000 HD
BRANCH   8  11
ATOM     11  C36 UNK     0      -7.313   1.010  -0.435  0.00  0.00    +0.000 C 
BRANCH  11  12
ATOM     12  N12 UNK     0      -7.659   2.360   0.068  0.00  0.00    +0.000 NA
ATOM     13  C39 UNK     0      -7.811   3.347  -1.024  0.00  0.00    +0.000 C 
ATOM     14  C42 UNK     0      -9.251   3.390  -1.581  0.00  0.00    +0.000 C 
ATOM     15  O5  UNK     0      -9.944   2.199  -1.274  0.00  0.00    +0.000 OA
ATOM     16  C43 UNK     0     -10.148   2.104   0.125  0.00  0.00    +0.000 C 
ATOM     17  C40 UNK     0      -8.853   2.351   0.933  0.00  0.00    +0.000 C 
ENDBRANCH  11  12
ENDBRANCH   8  11
ENDBRANCH   6   7
BRANCH   6  18
ATOM     18  C32 UNK     0      -3.839  -1.480   0.424  0.00  0.00    +0.000 C 
BRANCH  18  19
ATOM     19  C35 UNK     0      -4.987  -2.438   0.783  0.00  0.00    +0.000 C 
BRANCH  19  20
ATOM     20  C44 UNK     0      -4.760  -3.790   0.163  0.00  0.00    +0.000 A 
ATOM     21  C49 UNK     0      -5.220  -4.060  -1.138  0.00  0.00    +0.000 A 
ATOM     22  C51 UNK     0      -4.955  -5.295  -1.734  0.00  0.00    +0.000 A 
ATOM     23  C52 UNK     0      -4.222  -6.263  -1.041  0.00  0.00    +0.000 A 
ATOM     24  C50 UNK     0      -3.751  -5.999   0.250  0.00  0.00    +0.000 A 
ATOM     25  C48 UNK     0      -4.016  -4.765   0.849  0.00  0.00    +0.000 A 
ENDBRANCH  19  20
ENDBRANCH  18  19
ENDBRANCH   6  18
ENDBRANCH   4   6
ENDBRANCH   1   2
BRANCH   1  26
ATOM     26  C27 UNK     0       0.847   0.773  -0.100  0.00  0.00    +0.000 C 
ATOM     27  N9  UNK     0       1.797   1.570  -0.821  0.00  0.00    +0.000 N 
ATOM     28  H73 UNK     0       1.667   2.607  -0.821  0.00  0.00    +0.000 HD
ATOM     29  O4  UNK     0       1.069  -0.457   0.084  0.00  0.00    +0.000 OA
BRANCH  27  30
ATOM     30  C21 UNK     0       2.978   1.013  -1.489  0.00  0.00    +0.000 C 
BRANCH  30  31
ATOM     31  C20 UNK     0       4.201   1.309  -0.654  0.00  0.00    +0.000 C 
ATOM     32  N8  UNK     0       4.918   0.241  -0.016  0.00  0.00    +0.000 N 
ATOM     33  H62 UNK     0       4.719  -0.740  -0.311  0.00  0.00    +0.000 HD
ATOM     34  O3  UNK     0       4.588   2.498  -0.516  0.00  0.00    +0.000 OA
BRANCH  32  35
ATOM     35  C15 UNK     0       5.832   0.480   1.109  0.00  0.00    +0.000 C 
BRANCH  35  36
ATOM     36  C16 UNK     0       5.760  -0.634   2.147  0.00  0.00    +0.000 C 
ATOM     37  O2  UNK     0       6.693  -0.806   2.914  0.00  0.00    +0.000 OA
BRANCH  36  38
ATOM     38  C13 UNK     0       4.520  -1.461   2.356  0.00  0.00    +0.000 C 
ATOM     39  O1  UNK     0       3.322  -0.787   2.072  0.00  0.00    +0.000 OA
ATOM     40  C14 UNK     0       3.612  -1.011   3.435  0.00  0.00    +0.000 C 
ATOM     41  C17 UNK     0       4.494  -2.940   1.989  0.00  0.00    +0.000 C 
ENDBRANCH  36  38
ENDBRANCH  35  36
BRANCH  35  42
ATOM     42  C18 UNK     0       7.276   0.781   0.617  0.00  0.00    +0.000 C 
BRANCH  42  43
ATOM     43  C19 UNK     0       7.942  -0.215  -0.376  0.00  0.00    +0.000 C 
ATOM     44  C23 UNK     0       7.441  -0.050  -1.816  0.00  0.00    +0.000 C 
ATOM     45  C22 UNK     0       7.876  -1.679   0.077  0.00  0.00    +0.000 C 
ENDBRANCH  42  43
ENDBRANCH  35  42
ENDBRANCH  32  35
ENDBRANCH  30  31
BRANCH  30  46
ATOM     46  C24 UNK     0       3.082   1.613  -2.905  0.00  0.00    +0.000 C 
BRANCH  46  47
ATOM     47  C29 UNK     0       4.271   1.094  -3.674  0.00  0.00    +0.000 A 
ATOM     48  C37 UNK     0       5.348   1.946  -3.969  0.00  0.00    +0.000 A 
ATOM     49  C45 UNK     0       6.437   1.479  -4.707  0.00  0.00    +0.000 A 
ATOM     50  C47 UNK     0       6.470   0.150  -5.138  0.00  0.00    +0.000 A 
ATOM     51  C46 UNK     0       5.407  -0.708  -4.842  0.00  0.00    +0.000 A 
ATOM     52  C38 UNK     0       4.307  -0.239  -4.118  0.00  0.00    +0.000 A 
ENDBRANCH  46  47
ENDBRANCH  30  46
ENDBRANCH  27  30
ENDBRANCH   1  26
BRANCH   1  53
ATOM     53  C26 UNK     0      -0.106   2.195   1.783  0.00  0.00    +0.000 C 
BRANCH  53  54
ATOM     54  C28 UNK     0       0.659   1.409   2.880  0.00  0.00    +0.000 C 
ATOM     55  C33 UNK     0      -0.152   0.234   3.451  0.00  0.00    +0.000 C 
ATOM     56  C34 UNK     0       1.062   2.359   4.016  0.00  0.00    +0.000 C 
ENDBRANCH  53  54
ENDBRANCH   1  53
TORSDOF 20
