REMARK  Name = C:\Users\Maximilian\Desktop\Conformers\converted_pdb\conformers_pdb\TAK_242_conf_65.pdb
REMARK  25 active torsions:
REMARK  status: ('A' for Active; 'I' for Inactive)
REMARK    1  A    between atoms: C25_1  and  N10_2
REMARK    2  A    between atoms: C25_1  and  C27_26
REMARK    3  A    between atoms: C25_1  and  C26_53
REMARK    4  A    between atoms: C31_4  and  C30_6
REMARK    5  A    between atoms: C30_6  and  C32_7
REMARK    6  A    between atoms: C30_6  and  N11_15
REMARK    7  A    between atoms: C32_7  and  C35_8
REMARK    8  A    between atoms: C35_8  and  C44_9
REMARK    9  A    between atoms: C41_16  and  C36_19
REMARK   10  A    between atoms: C36_19  and  N12_20
REMARK   11  A    between atoms: N9_27  and  C21_30
REMARK   12  A    between atoms: C21_30  and  C24_31
REMARK   13  A    between atoms: C21_30  and  C20_38
REMARK   14  A    between atoms: C24_31  and  C29_32
REMARK   15  A    between atoms: N8_39  and  C15_42
REMARK   16  A    between atoms: C15_42  and  C18_43
REMARK   17  A    between atoms: C15_42  and  C16_47
REMARK   18  A    between atoms: C18_43  and  C19_44
REMARK   19  A    between atoms: C19_44  and  C23_45
REMARK   20  A    between atoms: C19_44  and  C22_46
REMARK   21  A    between atoms: C16_47  and  C13_49
REMARK   22  A    between atoms: C13_49  and  C17_52
REMARK   23  A    between atoms: C26_53  and  C28_54
REMARK   24  A    between atoms: C28_54  and  C33_55
REMARK   25  A    between atoms: C28_54  and  C34_56
REMARK                            x       y       z     vdW  Elec       q    Type
REMARK                         _______ _______ _______ _____ _____    ______ ____
ROOT
ATOM      1  C25 UNK     0       1.527   1.222   1.325  0.00  0.00    +0.000 C 
ENDROOT
BRANCH   1   2
ATOM      2  N10 UNK     0       2.763   1.256   0.536  0.00  0.00    +0.000 N 
ATOM      3  H77 UNK     0       3.197   2.174   0.283  0.00  0.00    +0.000 HD
ATOM      4  C31 UNK     0       3.436   0.063   0.108  0.00  0.00    +0.000 C 
ATOM      5  O6  UNK     0       3.053  -1.065   0.523  0.00  0.00    +0.000 OA
BRANCH   4   6
ATOM      6  C30 UNK     0       4.530   0.151  -0.919  0.00  0.00    +0.000 C 
BRANCH   6   7
ATOM      7  N11 UNK     0       5.544  -0.871  -0.651  0.00  0.00    +0.000 N 
ATOM      8  C41 UNK     0       6.633  -0.652   0.256  0.00  0.00    +0.000 C 
ATOM      9  O7  UNK     0       6.986   0.521   0.566  0.00  0.00    +0.000 OA
ATOM     10  H87 UNK     0       5.306  -1.864  -0.888  0.00  0.00    +0.000 HD
BRANCH   8  11
ATOM     11  C36 UNK     0       7.352  -1.831   0.839  0.00  0.00    +0.000 C 
BRANCH  11  12
ATOM     12  N12 UNK     0       6.427  -2.592   1.709  0.00  0.00    +0.000 NA
ATOM     13  C39 UNK     0       6.323  -2.009   3.070  0.00  0.00    +0.000 C 
ATOM     14  C42 UNK     0       7.298  -2.661   4.072  0.00  0.00    +0.000 C 
ATOM     15  O5  UNK     0       8.428  -3.171   3.400  0.00  0.00    +0.000 OA
ATOM     16  C43 UNK     0       8.058  -4.276   2.588  0.00  0.00    +0.000 C 
ATOM     17  C40 UNK     0       6.764  -4.026   1.774  0.00  0.00    +0.000 C 
ENDBRANCH  11  12
ENDBRANCH   8  11
ENDBRANCH   6   7
BRANCH   6  18
ATOM     18  C32 UNK     0       3.945  -0.030  -2.344  0.00  0.00    +0.000 C 
BRANCH  18  19
ATOM     19  C35 UNK     0       4.673   0.828  -3.391  0.00  0.00    +0.000 C 
BRANCH  19  20
ATOM     20  C44 UNK     0       4.126   2.236  -3.418  0.00  0.00    +0.000 A 
ATOM     21  C49 UNK     0       4.744   3.268  -2.687  0.00  0.00    +0.000 A 
ATOM     22  C51 UNK     0       4.195   4.556  -2.674  0.00  0.00    +0.000 A 
ATOM     23  C52 UNK     0       3.019   4.820  -3.385  0.00  0.00    +0.000 A 
ATOM     24  C50 UNK     0       2.394   3.800  -4.110  0.00  0.00    +0.000 A 
ATOM     25  C48 UNK     0       2.942   2.513  -4.127  0.00  0.00    +0.000 A 
ENDBRANCH  19  20
ENDBRANCH  18  19
ENDBRANCH   6  18
ENDBRANCH   4   6
ENDBRANCH   1   2
BRANCH   1  26
ATOM     26  C27 UNK     0       0.441   0.454   0.611  0.00  0.00    +0.000 C 
ATOM     27  N9  UNK     0      -0.555  -0.250   1.371  0.00  0.00    +0.000 N 
ATOM     28  H73 UNK     0      -0.509  -0.212   2.415  0.00  0.00    +0.000 HD
ATOM     29  O4  UNK     0       0.390   0.472  -0.650  0.00  0.00    +0.000 OA
BRANCH  27  30
ATOM     30  C21 UNK     0      -1.721  -0.887   0.750  0.00  0.00    +0.000 C 
BRANCH  30  31
ATOM     31  C20 UNK     0      -2.935  -0.009   0.914  0.00  0.00    +0.000 C 
ATOM     32  N8  UNK     0      -3.950   0.006  -0.103  0.00  0.00    +0.000 N 
ATOM     33  H62 UNK     0      -3.855  -0.680  -0.884  0.00  0.00    +0.000 HD
ATOM     34  O3  UNK     0      -3.086   0.658   1.971  0.00  0.00    +0.000 OA
BRANCH  32  35
ATOM     35  C15 UNK     0      -5.221   0.718   0.053  0.00  0.00    +0.000 C 
BRANCH  35  36
ATOM     36  C16 UNK     0      -5.720   1.197  -1.299  0.00  0.00    +0.000 C 
ATOM     37  O2  UNK     0      -5.785   2.397  -1.509  0.00  0.00    +0.000 OA
BRANCH  36  38
ATOM     38  C13 UNK     0      -6.053   0.247  -2.427  0.00  0.00    +0.000 C 
ATOM     39  O1  UNK     0      -7.174   0.690  -3.161  0.00  0.00    +0.000 OA
ATOM     40  C14 UNK     0      -7.342  -0.489  -2.408  0.00  0.00    +0.000 C 
ATOM     41  C17 UNK     0      -4.939  -0.249  -3.351  0.00  0.00    +0.000 C 
ENDBRANCH  36  38
ENDBRANCH  35  36
BRANCH  35  42
ATOM     42  C18 UNK     0      -6.231  -0.196   0.778  0.00  0.00    +0.000 C 
BRANCH  42  43
ATOM     43  C19 UNK     0      -7.541   0.519   1.186  0.00  0.00    +0.000 C 
ATOM     44  C23 UNK     0      -7.326   1.459   2.382  0.00  0.00    +0.000 C 
ATOM     45  C22 UNK     0      -8.619  -0.518   1.530  0.00  0.00    +0.000 C 
ENDBRANCH  42  43
ENDBRANCH  35  42
ENDBRANCH  32  35
ENDBRANCH  30  31
BRANCH  30  46
ATOM     46  C24 UNK     0      -1.945  -2.273   1.378  0.00  0.00    +0.000 C 
BRANCH  46  47
ATOM     47  C29 UNK     0      -2.988  -3.055   0.626  0.00  0.00    +0.000 A 
ATOM     48  C37 UNK     0      -4.299  -3.156   1.125  0.00  0.00    +0.000 A 
ATOM     49  C45 UNK     0      -5.290  -3.792   0.372  0.00  0.00    +0.000 A 
ATOM     50  C47 UNK     0      -4.980  -4.328  -0.884  0.00  0.00    +0.000 A 
ATOM     51  C46 UNK     0      -3.676  -4.239  -1.386  0.00  0.00    +0.000 A 
ATOM     52  C38 UNK     0      -2.682  -3.607  -0.632  0.00  0.00    +0.000 A 
ENDBRANCH  46  47
ENDBRANCH  30  46
ENDBRANCH  27  30
ENDBRANCH   1  26
BRANCH   1  53
ATOM     53  C26 UNK     0       1.058   2.645   1.726  0.00  0.00    +0.000 C 
BRANCH  53  54
ATOM     54  C28 UNK     0       0.304   3.463   0.640  0.00  0.00    +0.000 C 
ATOM     55  C33 UNK     0       1.192   3.833  -0.556  0.00  0.00    +0.000 C 
ATOM     56  C34 UNK     0      -0.269   4.742   1.266  0.00  0.00    +0.000 C 
ENDBRANCH  53  54
ENDBRANCH   1  53
TORSDOF 20
