REMARK  Name = C:\Users\Maximilian\Desktop\Conformers\converted_pdb\conformers_pdb\TAK_242_conf_68.pdb
REMARK  25 active torsions:
REMARK  status: ('A' for Active; 'I' for Inactive)
REMARK    1  A    between atoms: C25_1  and  N10_2
REMARK    2  A    between atoms: C25_1  and  C27_26
REMARK    3  A    between atoms: C25_1  and  C26_53
REMARK    4  A    between atoms: C31_4  and  C30_6
REMARK    5  A    between atoms: C30_6  and  C32_7
REMARK    6  A    between atoms: C30_6  and  N11_15
REMARK    7  A    between atoms: C32_7  and  C35_8
REMARK    8  A    between atoms: C35_8  and  C44_9
REMARK    9  A    between atoms: C41_16  and  C36_19
REMARK   10  A    between atoms: C36_19  and  N12_20
REMARK   11  A    between atoms: N9_27  and  C21_30
REMARK   12  A    between atoms: C21_30  and  C24_31
REMARK   13  A    between atoms: C21_30  and  C20_38
REMARK   14  A    between atoms: C24_31  and  C29_32
REMARK   15  A    between atoms: N8_39  and  C15_42
REMARK   16  A    between atoms: C15_42  and  C18_43
REMARK   17  A    between atoms: C15_42  and  C16_47
REMARK   18  A    between atoms: C18_43  and  C19_44
REMARK   19  A    between atoms: C19_44  and  C23_45
REMARK   20  A    between atoms: C19_44  and  C22_46
REMARK   21  A    between atoms: C16_47  and  C13_49
REMARK   22  A    between atoms: C13_49  and  C17_52
REMARK   23  A    between atoms: C26_53  and  C28_54
REMARK   24  A    between atoms: C28_54  and  C33_55
REMARK   25  A    between atoms: C28_54  and  C34_56
REMARK                            x       y       z     vdW  Elec       q    Type
REMARK                         _______ _______ _______ _____ _____    ______ ____
ROOT
ATOM      1  C25 UNK     0      -0.221   0.267  -0.902  0.00  0.00    +0.000 C 
ENDROOT
BRANCH   1   2
ATOM      2  N10 UNK     0      -1.635   0.299  -0.512  0.00  0.00    +0.000 N 
ATOM      3  H77 UNK     0      -2.121   1.219  -0.431  0.00  0.00    +0.000 HD
ATOM      4  C31 UNK     0      -2.404  -0.901  -0.331  0.00  0.00    +0.000 C 
ATOM      5  O6  UNK     0      -1.825  -2.018  -0.267  0.00  0.00    +0.000 OA
BRANCH   4   6
ATOM      6  C30 UNK     0      -3.911  -0.853  -0.294  0.00  0.00    +0.000 C 
BRANCH   6   7
ATOM      7  N11 UNK     0      -4.357   0.302   0.489  0.00  0.00    +0.000 N 
ATOM      8  C41 UNK     0      -4.197   0.373   1.911  0.00  0.00    +0.000 C 
ATOM      9  O7  UNK     0      -3.653  -0.578   2.540  0.00  0.00    +0.000 OA
ATOM     10  H87 UNK     0      -4.807   1.106   0.000  0.00  0.00    +0.000 HD
BRANCH   8  11
ATOM     11  C36 UNK     0      -4.704   1.562   2.672  0.00  0.00    +0.000 C 
BRANCH  11  12
ATOM     12  N12 UNK     0      -5.943   1.220   3.402  0.00  0.00    +0.000 NA
ATOM     13  C39 UNK     0      -6.178   2.187   4.498  0.00  0.00    +0.000 C 
ATOM     14  C42 UNK     0      -7.657   2.193   4.919  0.00  0.00    +0.000 C 
ATOM     15  O5  UNK     0      -8.549   2.568   3.875  0.00  0.00    +0.000 OA
ATOM     16  C43 UNK     0      -8.049   2.307   2.572  0.00  0.00    +0.000 C 
ATOM     17  C40 UNK     0      -7.115   1.084   2.502  0.00  0.00    +0.000 C 
ENDBRANCH  11  12
ENDBRANCH   8  11
ENDBRANCH   6   7
BRANCH   6  18
ATOM     18  C32 UNK     0      -4.485  -0.778  -1.726  0.00  0.00    +0.000 C 
BRANCH  18  19
ATOM     19  C35 UNK     0      -4.243  -2.049  -2.561  0.00  0.00    +0.000 C 
BRANCH  19  20
ATOM     20  C44 UNK     0      -5.052  -3.225  -2.067  0.00  0.00    +0.000 A 
ATOM     21  C49 UNK     0      -6.417  -3.317  -2.362  0.00  0.00    +0.000 A 
ATOM     22  C51 UNK     0      -7.175  -4.394  -1.887  0.00  0.00    +0.000 A 
ATOM     23  C52 UNK     0      -6.572  -5.372  -1.092  0.00  0.00    +0.000 A 
ATOM     24  C50 UNK     0      -5.214  -5.278  -0.780  0.00  0.00    +0.000 A 
ATOM     25  C48 UNK     0      -4.455  -4.214  -1.270  0.00  0.00    +0.000 A 
ENDBRANCH  19  20
ENDBRANCH  18  19
ENDBRANCH   6  18
ENDBRANCH   4   6
ENDBRANCH   1   2
BRANCH   1  26
ATOM     26  C27 UNK     0       0.611  -0.361   0.183  0.00  0.00    +0.000 C 
ATOM     27  N9  UNK     0       1.727  -1.189  -0.179  0.00  0.00    +0.000 N 
ATOM     28  H73 UNK     0       2.014  -1.196  -1.184  0.00  0.00    +0.000 HD
ATOM     29  O4  UNK     0       0.353  -0.122   1.396  0.00  0.00    +0.000 OA
BRANCH  27  30
ATOM     30  C21 UNK     0       2.622  -1.796   0.809  0.00  0.00    +0.000 C 
BRANCH  30  31
ATOM     31  C20 UNK     0       3.801  -0.901   1.120  0.00  0.00    +0.000 C 
ATOM     32  N8  UNK     0       4.000   0.354   0.444  0.00  0.00    +0.000 N 
ATOM     33  H62 UNK     0       3.228   0.755  -0.138  0.00  0.00    +0.000 HD
ATOM     34  O3  UNK     0       4.618  -1.273   2.007  0.00  0.00    +0.000 OA
BRANCH  32  35
ATOM     35  C15 UNK     0       5.210   1.167   0.607  0.00  0.00    +0.000 C 
BRANCH  35  36
ATOM     36  C16 UNK     0       5.696   1.612  -0.756  0.00  0.00    +0.000 C 
ATOM     37  O2  UNK     0       4.939   2.234  -1.490  0.00  0.00    +0.000 OA
BRANCH  36  38
ATOM     38  C13 UNK     0       7.091   1.287  -1.235  0.00  0.00    +0.000 C 
ATOM     39  O1  UNK     0       7.413   1.937  -2.444  0.00  0.00    +0.000 OA
ATOM     40  C14 UNK     0       7.226   0.536  -2.509  0.00  0.00    +0.000 C 
ATOM     41  C17 UNK     0       8.265   1.247  -0.260  0.00  0.00    +0.000 C 
ENDBRANCH  36  38
ENDBRANCH  35  36
BRANCH  35  42
ATOM     42  C18 UNK     0       4.917   2.404   1.487  0.00  0.00    +0.000 C 
BRANCH  42  43
ATOM     43  C19 UNK     0       4.505   2.063   2.939  0.00  0.00    +0.000 C 
ATOM     44  C23 UNK     0       3.940   3.314   3.630  0.00  0.00    +0.000 C 
ATOM     45  C22 UNK     0       5.689   1.521   3.758  0.00  0.00    +0.000 C 
ENDBRANCH  42  43
ENDBRANCH  35  42
ENDBRANCH  32  35
ENDBRANCH  30  31
BRANCH  30  46
ATOM     46  C24 UNK     0       3.082  -3.195   0.342  0.00  0.00    +0.000 C 
BRANCH  46  47
ATOM     47  C29 UNK     0       3.832  -3.172  -0.971  0.00  0.00    +0.000 A 
ATOM     48  C37 UNK     0       5.204  -2.879  -1.008  0.00  0.00    +0.000 A 
ATOM     49  C45 UNK     0       5.877  -2.802  -2.230  0.00  0.00    +0.000 A 
ATOM     50  C47 UNK     0       5.191  -3.043  -3.422  0.00  0.00    +0.000 A 
ATOM     51  C46 UNK     0       3.832  -3.368  -3.394  0.00  0.00    +0.000 A 
ATOM     52  C38 UNK     0       3.154  -3.429  -2.175  0.00  0.00    +0.000 A 
ENDBRANCH  46  47
ENDBRANCH  30  46
ENDBRANCH  27  30
ENDBRANCH   1  26
BRANCH   1  53
ATOM     53  C26 UNK     0       0.318   1.681  -1.211  0.00  0.00    +0.000 C 
BRANCH  53  54
ATOM     54  C28 UNK     0      -0.347   2.362  -2.435  0.00  0.00    +0.000 C 
ATOM     55  C33 UNK     0       0.005   1.647  -3.749  0.00  0.00    +0.000 C 
ATOM     56  C34 UNK     0       0.095   3.830  -2.503  0.00  0.00    +0.000 C 
ENDBRANCH  53  54
ENDBRANCH   1  53
TORSDOF 20
