REMARK  Name = C:\Users\Maximilian\Desktop\Conformers\converted_pdb\conformers_pdb\TAK_242_conf_55.pdb
REMARK  25 active torsions:
REMARK  status: ('A' for Active; 'I' for Inactive)
REMARK    1  A    between atoms: C25_1  and  N10_2
REMARK    2  A    between atoms: C25_1  and  C27_26
REMARK    3  A    between atoms: C25_1  and  C26_53
REMARK    4  A    between atoms: C31_4  and  C30_6
REMARK    5  A    between atoms: C30_6  and  C32_7
REMARK    6  A    between atoms: C30_6  and  N11_15
REMARK    7  A    between atoms: C32_7  and  C35_8
REMARK    8  A    between atoms: C35_8  and  C44_9
REMARK    9  A    between atoms: C41_16  and  C36_19
REMARK   10  A    between atoms: C36_19  and  N12_20
REMARK   11  A    between atoms: N9_27  and  C21_30
REMARK   12  A    between atoms: C21_30  and  C24_31
REMARK   13  A    between atoms: C21_30  and  C20_38
REMARK   14  A    between atoms: C24_31  and  C29_32
REMARK   15  A    between atoms: N8_39  and  C15_42
REMARK   16  A    between atoms: C15_42  and  C18_43
REMARK   17  A    between atoms: C15_42  and  C16_47
REMARK   18  A    between atoms: C18_43  and  C19_44
REMARK   19  A    between atoms: C19_44  and  C23_45
REMARK   20  A    between atoms: C19_44  and  C22_46
REMARK   21  A    between atoms: C16_47  and  C13_49
REMARK   22  A    between atoms: C13_49  and  C17_52
REMARK   23  A    between atoms: C26_53  and  C28_54
REMARK   24  A    between atoms: C28_54  and  C33_55
REMARK   25  A    between atoms: C28_54  and  C34_56
REMARK                            x       y       z     vdW  Elec       q    Type
REMARK                         _______ _______ _______ _____ _____    ______ ____
ROOT
ATOM      1  C25 UNK     0       0.278   2.032   1.450  0.00  0.00    +0.000 C 
ENDROOT
BRANCH   1   2
ATOM      2  N10 UNK     0       1.089   0.858   1.099  0.00  0.00    +0.000 N 
ATOM      3  H77 UNK     0       0.760   0.192   0.360  0.00  0.00    +0.000 HD
ATOM      4  C31 UNK     0       2.347   0.575   1.729  0.00  0.00    +0.000 C 
ATOM      5  O6  UNK     0       2.690   1.202   2.767  0.00  0.00    +0.000 OA
BRANCH   4   6
ATOM      6  C30 UNK     0       3.279  -0.446   1.124  0.00  0.00    +0.000 C 
BRANCH   6   7
ATOM      7  N11 UNK     0       4.644   0.090   1.049  0.00  0.00    +0.000 N 
ATOM      8  C41 UNK     0       4.981   1.160   0.146  0.00  0.00    +0.000 C 
ATOM      9  O7  UNK     0       4.078   1.753  -0.508  0.00  0.00    +0.000 OA
ATOM     10  H87 UNK     0       5.421  -0.364   1.587  0.00  0.00    +0.000 HD
BRANCH   8  11
ATOM     11  C36 UNK     0       6.410   1.576  -0.041  0.00  0.00    +0.000 C 
BRANCH  11  12
ATOM     12  N12 UNK     0       6.828   1.356  -1.444  0.00  0.00    +0.000 NA
ATOM     13  C39 UNK     0       6.993  -0.075  -1.766  0.00  0.00    +0.000 C 
ATOM     14  C42 UNK     0       8.274  -0.666  -1.133  0.00  0.00    +0.000 C 
ATOM     15  O5  UNK     0       9.191   0.324  -0.702  0.00  0.00    +0.000 OA
ATOM     16  C43 UNK     0       9.331   1.318  -1.695  0.00  0.00    +0.000 C 
ATOM     17  C40 UNK     0       8.032   2.138  -1.815  0.00  0.00    +0.000 C 
ENDBRANCH  11  12
ENDBRANCH   8  11
ENDBRANCH   6   7
BRANCH   6  18
ATOM     18  C32 UNK     0       3.232  -1.797   1.868  0.00  0.00    +0.000 C 
BRANCH  18  19
ATOM     19  C35 UNK     0       3.552  -1.716   3.373  0.00  0.00    +0.000 C 
BRANCH  19  20
ATOM     20  C44 UNK     0       3.633  -3.101   3.958  0.00  0.00    +0.000 A 
ATOM     21  C49 UNK     0       4.806  -3.864   3.815  0.00  0.00    +0.000 A 
ATOM     22  C51 UNK     0       4.866  -5.164   4.327  0.00  0.00    +0.000 A 
ATOM     23  C52 UNK     0       3.761  -5.714   4.983  0.00  0.00    +0.000 A 
ATOM     24  C50 UNK     0       2.588  -4.964   5.117  0.00  0.00    +0.000 A 
ATOM     25  C48 UNK     0       2.519  -3.666   4.600  0.00  0.00    +0.000 A 
ENDBRANCH  19  20
ENDBRANCH  18  19
ENDBRANCH   6  18
ENDBRANCH   4   6
ENDBRANCH   1   2
BRANCH   1  26
ATOM     26  C27 UNK     0      -1.084   1.928   0.804  0.00  0.00    +0.000 C 
ATOM     27  N9  UNK     0      -1.203   1.677  -0.605  0.00  0.00    +0.000 N 
ATOM     28  H73 UNK     0      -0.335   1.675  -1.187  0.00  0.00    +0.000 HD
ATOM     29  O4  UNK     0      -2.121   2.065   1.514  0.00  0.00    +0.000 OA
BRANCH  27  30
ATOM     30  C21 UNK     0      -2.488   1.343  -1.233  0.00  0.00    +0.000 C 
BRANCH  30  31
ATOM     31  C20 UNK     0      -3.016   0.038  -0.682  0.00  0.00    +0.000 C 
ATOM     32  N8  UNK     0      -4.429  -0.216  -0.668  0.00  0.00    +0.000 N 
ATOM     33  H62 UNK     0      -5.046   0.416  -1.220  0.00  0.00    +0.000 HD
ATOM     34  O3  UNK     0      -2.209  -0.839  -0.258  0.00  0.00    +0.000 OA
BRANCH  32  35
ATOM     35  C15 UNK     0      -5.029  -1.387  -0.018  0.00  0.00    +0.000 C 
BRANCH  35  36
ATOM     36  C16 UNK     0      -6.272  -0.991   0.760  0.00  0.00    +0.000 C 
ATOM     37  O2  UNK     0      -6.547  -1.602   1.782  0.00  0.00    +0.000 OA
BRANCH  36  38
ATOM     38  C13 UNK     0      -7.236   0.059   0.274  0.00  0.00    +0.000 C 
ATOM     39  O1  UNK     0      -6.730   1.371   0.389  0.00  0.00    +0.000 OA
ATOM     40  C14 UNK     0      -7.772   1.021   1.270  0.00  0.00    +0.000 C 
ATOM     41  C17 UNK     0      -8.028  -0.163  -1.010  0.00  0.00    +0.000 C 
ENDBRANCH  36  38
ENDBRANCH  35  36
BRANCH  35  42
ATOM     42  C18 UNK     0      -5.384  -2.465  -1.071  0.00  0.00    +0.000 C 
BRANCH  42  43
ATOM     43  C19 UNK     0      -4.156  -3.181  -1.683  0.00  0.00    +0.000 C 
ATOM     44  C23 UNK     0      -4.574  -3.973  -2.928  0.00  0.00    +0.000 C 
ATOM     45  C22 UNK     0      -3.475  -4.123  -0.677  0.00  0.00    +0.000 C 
ENDBRANCH  42  43
ENDBRANCH  35  42
ENDBRANCH  32  35
ENDBRANCH  30  31
BRANCH  30  46
ATOM     46  C24 UNK     0      -2.326   1.278  -2.768  0.00  0.00    +0.000 C 
BRANCH  46  47
ATOM     47  C29 UNK     0      -3.649   1.112  -3.474  0.00  0.00    +0.000 A 
ATOM     48  C37 UNK     0      -4.001  -0.120  -4.054  0.00  0.00    +0.000 A 
ATOM     49  C45 UNK     0      -5.263  -0.290  -4.635  0.00  0.00    +0.000 A 
ATOM     50  C47 UNK     0      -6.176   0.768  -4.646  0.00  0.00    +0.000 A 
ATOM     51  C46 UNK     0      -5.824   1.999  -4.086  0.00  0.00    +0.000 A 
ATOM     52  C38 UNK     0      -4.567   2.172  -3.503  0.00  0.00    +0.000 A 
ENDBRANCH  46  47
ENDBRANCH  30  46
ENDBRANCH  27  30
ENDBRANCH   1  26
BRANCH   1  53
ATOM     53  C26 UNK     0       1.005   3.329   1.020  0.00  0.00    +0.000 C 
BRANCH  53  54
ATOM     54  C28 UNK     0       0.276   4.632   1.430  0.00  0.00    +0.000 C 
ATOM     55  C33 UNK     0       0.994   5.841   0.819  0.00  0.00    +0.000 C 
ATOM     56  C34 UNK     0       0.198   4.791   2.956  0.00  0.00    +0.000 C 
ENDBRANCH  53  54
ENDBRANCH   1  53
TORSDOF 20
