REMARK  Name = C:\Users\Maximilian\Desktop\Conformers\converted_pdb\conformers_pdb\TAK_242_conf_19.pdb
REMARK  25 active torsions:
REMARK  status: ('A' for Active; 'I' for Inactive)
REMARK    1  A    between atoms: C25_1  and  N10_2
REMARK    2  A    between atoms: C25_1  and  C27_26
REMARK    3  A    between atoms: C25_1  and  C26_53
REMARK    4  A    between atoms: C31_4  and  C30_6
REMARK    5  A    between atoms: C30_6  and  C32_7
REMARK    6  A    between atoms: C30_6  and  N11_15
REMARK    7  A    between atoms: C32_7  and  C35_8
REMARK    8  A    between atoms: C35_8  and  C44_9
REMARK    9  A    between atoms: C41_16  and  C36_19
REMARK   10  A    between atoms: C36_19  and  N12_20
REMARK   11  A    between atoms: N9_27  and  C21_30
REMARK   12  A    between atoms: C21_30  and  C24_31
REMARK   13  A    between atoms: C21_30  and  C20_38
REMARK   14  A    between atoms: C24_31  and  C29_32
REMARK   15  A    between atoms: N8_39  and  C15_42
REMARK   16  A    between atoms: C15_42  and  C18_43
REMARK   17  A    between atoms: C15_42  and  C16_47
REMARK   18  A    between atoms: C18_43  and  C19_44
REMARK   19  A    between atoms: C19_44  and  C23_45
REMARK   20  A    between atoms: C19_44  and  C22_46
REMARK   21  A    between atoms: C16_47  and  C13_49
REMARK   22  A    between atoms: C13_49  and  C17_52
REMARK   23  A    between atoms: C26_53  and  C28_54
REMARK   24  A    between atoms: C28_54  and  C33_55
REMARK   25  A    between atoms: C28_54  and  C34_56
REMARK                            x       y       z     vdW  Elec       q    Type
REMARK                         _______ _______ _______ _____ _____    ______ ____
ROOT
ATOM      1  C25 UNK     0      -0.243  -1.089  -0.712  0.00  0.00    +0.000 C 
ENDROOT
BRANCH   1   2
ATOM      2  N10 UNK     0       1.025  -0.836  -0.015  0.00  0.00    +0.000 N 
ATOM      3  H77 UNK     0       1.080  -1.040   1.009  0.00  0.00    +0.000 HD
ATOM      4  C31 UNK     0       2.171  -0.259  -0.663  0.00  0.00    +0.000 C 
ATOM      5  O6  UNK     0       2.140  -0.002  -1.899  0.00  0.00    +0.000 OA
BRANCH   4   6
ATOM      6  C30 UNK     0       3.424   0.042   0.125  0.00  0.00    +0.000 C 
BRANCH   6   7
ATOM      7  N11 UNK     0       4.557  -0.700  -0.438  0.00  0.00    +0.000 N 
ATOM      8  C41 UNK     0       5.760  -0.952   0.305  0.00  0.00    +0.000 C 
ATOM      9  O7  UNK     0       5.914  -0.455   1.454  0.00  0.00    +0.000 OA
ATOM     10  H87 UNK     0       4.498  -1.072  -1.413  0.00  0.00    +0.000 HD
BRANCH   8  11
ATOM     11  C36 UNK     0       6.860  -1.766  -0.317  0.00  0.00    +0.000 C 
BRANCH  11  12
ATOM     12  N12 UNK     0       7.779  -2.303   0.712  0.00  0.00    +0.000 NA
ATOM     13  C39 UNK     0       9.093  -2.660   0.138  0.00  0.00    +0.000 C 
ATOM     14  C42 UNK     0       9.012  -3.931  -0.743  0.00  0.00    +0.000 C 
ATOM     15  O5  UNK     0       7.839  -4.695  -0.522  0.00  0.00    +0.000 OA
ATOM     16  C43 UNK     0       7.592  -4.812   0.862  0.00  0.00    +0.000 C 
ATOM     17  C40 UNK     0       7.194  -3.446   1.457  0.00  0.00    +0.000 C 
ENDBRANCH  11  12
ENDBRANCH   8  11
ENDBRANCH   6   7
BRANCH   6  18
ATOM     18  C32 UNK     0       3.726   1.554   0.123  0.00  0.00    +0.000 C 
BRANCH  18  19
ATOM     19  C35 UNK     0       2.713   2.344   0.964  0.00  0.00    +0.000 C 
BRANCH  19  20
ATOM     20  C44 UNK     0       3.033   3.814   0.930  0.00  0.00    +0.000 A 
ATOM     21  C49 UNK     0       3.840   4.387   1.927  0.00  0.00    +0.000 A 
ATOM     22  C51 UNK     0       4.161   5.747   1.877  0.00  0.00    +0.000 A 
ATOM     23  C52 UNK     0       3.689   6.540   0.828  0.00  0.00    +0.000 A 
ATOM     24  C50 UNK     0       2.897   5.974  -0.176  0.00  0.00    +0.000 A 
ATOM     25  C48 UNK     0       2.575   4.615  -0.130  0.00  0.00    +0.000 A 
ENDBRANCH  19  20
ENDBRANCH  18  19
ENDBRANCH   6  18
ENDBRANCH   4   6
ENDBRANCH   1   2
BRANCH   1  26
ATOM     26  C27 UNK     0      -1.218   0.051  -0.493  0.00  0.00    +0.000 C 
ATOM     27  N9  UNK     0      -1.075   0.966   0.612  0.00  0.00    +0.000 N 
ATOM     28  H73 UNK     0      -0.415   0.721   1.383  0.00  0.00    +0.000 HD
ATOM     29  O4  UNK     0      -2.166   0.200  -1.311  0.00  0.00    +0.000 OA
BRANCH  27  30
ATOM     30  C21 UNK     0      -1.838   2.215   0.771  0.00  0.00    +0.000 C 
BRANCH  30  31
ATOM     31  C20 UNK     0      -3.329   1.977   0.694  0.00  0.00    +0.000 C 
ATOM     32  N8  UNK     0      -3.917   0.889   1.425  0.00  0.00    +0.000 N 
ATOM     33  H62 UNK     0      -3.302   0.357   2.078  0.00  0.00    +0.000 HD
ATOM     34  O3  UNK     0      -4.073   2.788   0.079  0.00  0.00    +0.000 OA
BRANCH  32  35
ATOM     35  C15 UNK     0      -5.359   0.614   1.377  0.00  0.00    +0.000 C 
BRANCH  35  36
ATOM     36  C16 UNK     0      -5.757   0.082   0.020  0.00  0.00    +0.000 C 
ATOM     37  O2  UNK     0      -5.034  -0.712  -0.562  0.00  0.00    +0.000 OA
BRANCH  36  38
ATOM     38  C13 UNK     0      -7.014   0.570  -0.652  0.00  0.00    +0.000 C 
ATOM     39  O1  UNK     0      -7.026   0.335  -2.040  0.00  0.00    +0.000 OA
ATOM     40  C14 UNK     0      -6.872   1.676  -1.626  0.00  0.00    +0.000 C 
ATOM     41  C17 UNK     0      -8.379   0.326  -0.010  0.00  0.00    +0.000 C 
ENDBRANCH  36  38
ENDBRANCH  35  36
BRANCH  35  42
ATOM     42  C18 UNK     0      -5.832  -0.259   2.576  0.00  0.00    +0.000 C 
BRANCH  42  43
ATOM     43  C19 UNK     0      -5.567  -1.792   2.592  0.00  0.00    +0.000 C 
ATOM     44  C23 UNK     0      -4.108  -2.183   2.347  0.00  0.00    +0.000 C 
ATOM     45  C22 UNK     0      -6.528  -2.597   1.703  0.00  0.00    +0.000 C 
ENDBRANCH  42  43
ENDBRANCH  35  42
ENDBRANCH  32  35
ENDBRANCH  30  31
BRANCH  30  46
ATOM     46  C24 UNK     0      -1.309   3.351  -0.149  0.00  0.00    +0.000 C 
BRANCH  46  47
ATOM     47  C29 UNK     0      -1.280   3.025  -1.626  0.00  0.00    +0.000 A 
ATOM     48  C37 UNK     0      -2.381   3.312  -2.453  0.00  0.00    +0.000 A 
ATOM     49  C45 UNK     0      -2.351   2.976  -3.811  0.00  0.00    +0.000 A 
ATOM     50  C47 UNK     0      -1.220   2.365  -4.358  0.00  0.00    +0.000 A 
ATOM     51  C46 UNK     0      -0.111   2.099  -3.551  0.00  0.00    +0.000 A 
ATOM     52  C38 UNK     0      -0.137   2.435  -2.195  0.00  0.00    +0.000 A 
ENDBRANCH  46  47
ENDBRANCH  30  46
ENDBRANCH  27  30
ENDBRANCH   1  26
BRANCH   1  53
ATOM     53  C26 UNK     0      -0.822  -2.444  -0.243  0.00  0.00    +0.000 C 
BRANCH  53  54
ATOM     54  C28 UNK     0      -2.036  -2.966  -1.055  0.00  0.00    +0.000 C 
ATOM     55  C33 UNK     0      -2.510  -4.307  -0.477  0.00  0.00    +0.000 C 
ATOM     56  C34 UNK     0      -1.719  -3.141  -2.548  0.00  0.00    +0.000 C 
ENDBRANCH  53  54
ENDBRANCH   1  53
TORSDOF 20
