REMARK  Name = C:\Users\Maximilian\Desktop\Conformers\converted_pdb\conformers_pdb\TAK_242_conf_63.pdb
REMARK  25 active torsions:
REMARK  status: ('A' for Active; 'I' for Inactive)
REMARK    1  A    between atoms: C25_1  and  N10_2
REMARK    2  A    between atoms: C25_1  and  C27_26
REMARK    3  A    between atoms: C25_1  and  C26_53
REMARK    4  A    between atoms: C31_4  and  C30_6
REMARK    5  A    between atoms: C30_6  and  C32_7
REMARK    6  A    between atoms: C30_6  and  N11_15
REMARK    7  A    between atoms: C32_7  and  C35_8
REMARK    8  A    between atoms: C35_8  and  C44_9
REMARK    9  A    between atoms: C41_16  and  C36_19
REMARK   10  A    between atoms: C36_19  and  N12_20
REMARK   11  A    between atoms: N9_27  and  C21_30
REMARK   12  A    between atoms: C21_30  and  C24_31
REMARK   13  A    between atoms: C21_30  and  C20_38
REMARK   14  A    between atoms: C24_31  and  C29_32
REMARK   15  A    between atoms: N8_39  and  C15_42
REMARK   16  A    between atoms: C15_42  and  C18_43
REMARK   17  A    between atoms: C15_42  and  C16_47
REMARK   18  A    between atoms: C18_43  and  C19_44
REMARK   19  A    between atoms: C19_44  and  C23_45
REMARK   20  A    between atoms: C19_44  and  C22_46
REMARK   21  A    between atoms: C16_47  and  C13_49
REMARK   22  A    between atoms: C13_49  and  C17_52
REMARK   23  A    between atoms: C26_53  and  C28_54
REMARK   24  A    between atoms: C28_54  and  C33_55
REMARK   25  A    between atoms: C28_54  and  C34_56
REMARK                            x       y       z     vdW  Elec       q    Type
REMARK                         _______ _______ _______ _____ _____    ______ ____
ROOT
ATOM      1  C25 UNK     0       0.884  -0.789   0.822  0.00  0.00    +0.000 C 
ENDROOT
BRANCH   1   2
ATOM      2  N10 UNK     0       2.228  -0.312   0.485  0.00  0.00    +0.000 N 
ATOM      3  H77 UNK     0       2.788   0.194   1.210  0.00  0.00    +0.000 HD
ATOM      4  C31 UNK     0       2.789  -0.499  -0.825  0.00  0.00    +0.000 C 
ATOM      5  O6  UNK     0       2.085  -0.990  -1.752  0.00  0.00    +0.000 OA
BRANCH   4   6
ATOM      6  C30 UNK     0       4.232  -0.150  -1.100  0.00  0.00    +0.000 C 
BRANCH   6   7
ATOM      7  N11 UNK     0       4.445   1.288  -0.913  0.00  0.00    +0.000 N 
ATOM      8  C41 UNK     0       5.596   1.964  -1.437  0.00  0.00    +0.000 C 
ATOM      9  O7  UNK     0       6.337   1.397  -2.284  0.00  0.00    +0.000 OA
ATOM     10  H87 UNK     0       3.786   1.833  -0.311  0.00  0.00    +0.000 HD
BRANCH   8  11
ATOM     11  C36 UNK     0       5.954   3.336  -0.945  0.00  0.00    +0.000 C 
BRANCH  11  12
ATOM     12  N12 UNK     0       7.069   3.267   0.021  0.00  0.00    +0.000 NA
ATOM     13  C39 UNK     0       6.651   2.629   1.288  0.00  0.00    +0.000 C 
ATOM     14  C42 UNK     0       7.756   2.748   2.357  0.00  0.00    +0.000 C 
ATOM     15  O5  UNK     0       8.957   3.237   1.799  0.00  0.00    +0.000 OA
ATOM     16  C43 UNK     0       8.758   4.550   1.306  0.00  0.00    +0.000 C 
ATOM     17  C40 UNK     0       7.595   4.618   0.293  0.00  0.00    +0.000 C 
ENDBRANCH  11  12
ENDBRANCH   8  11
ENDBRANCH   6   7
BRANCH   6  18
ATOM     18  C32 UNK     0       5.193  -0.943  -0.186  0.00  0.00    +0.000 C 
BRANCH  18  19
ATOM     19  C35 UNK     0       5.088  -2.470  -0.349  0.00  0.00    +0.000 C 
BRANCH  19  20
ATOM     20  C44 UNK     0       5.540  -2.925  -1.713  0.00  0.00    +0.000 A 
ATOM     21  C49 UNK     0       4.600  -3.295  -2.691  0.00  0.00    +0.000 A 
ATOM     22  C51 UNK     0       5.026  -3.697  -3.961  0.00  0.00    +0.000 A 
ATOM     23  C52 UNK     0       6.391  -3.731  -4.262  0.00  0.00    +0.000 A 
ATOM     24  C50 UNK     0       7.331  -3.367  -3.295  0.00  0.00    +0.000 A 
ATOM     25  C48 UNK     0       6.910  -2.957  -2.028  0.00  0.00    +0.000 A 
ENDBRANCH  19  20
ENDBRANCH  18  19
ENDBRANCH   6  18
ENDBRANCH   4   6
ENDBRANCH   1   2
BRANCH   1  26
ATOM     26  C27 UNK     0      -0.130   0.228   0.372  0.00  0.00    +0.000 C 
ATOM     27  N9  UNK     0      -1.118  -0.124  -0.608  0.00  0.00    +0.000 N 
ATOM     28  H73 UNK     0      -1.056  -1.072  -1.042  0.00  0.00    +0.000 HD
ATOM     29  O4  UNK     0      -0.100   1.391   0.857  0.00  0.00    +0.000 OA
BRANCH  27  30
ATOM     30  C21 UNK     0      -2.353   0.646  -0.790  0.00  0.00    +0.000 C 
BRANCH  30  31
ATOM     31  C20 UNK     0      -3.464   0.049   0.037  0.00  0.00    +0.000 C 
ATOM     32  N8  UNK     0      -4.587   0.855   0.418  0.00  0.00    +0.000 N 
ATOM     33  H62 UNK     0      -4.700   1.777  -0.059  0.00  0.00    +0.000 HD
ATOM     34  O3  UNK     0      -3.428  -1.174   0.346  0.00  0.00    +0.000 OA
BRANCH  32  35
ATOM     35  C15 UNK     0      -5.694   0.330   1.226  0.00  0.00    +0.000 C 
BRANCH  35  36
ATOM     36  C16 UNK     0      -6.223   1.398   2.166  0.00  0.00    +0.000 C 
ATOM     37  O2  UNK     0      -6.603   1.070   3.281  0.00  0.00    +0.000 OA
BRANCH  36  38
ATOM     38  C13 UNK     0      -6.279   2.855   1.787  0.00  0.00    +0.000 C 
ATOM     39  O1  UNK     0      -7.524   3.427   2.109  0.00  0.00    +0.000 OA
ATOM     40  C14 UNK     0      -7.230   3.294   0.737  0.00  0.00    +0.000 C 
ATOM     41  C17 UNK     0      -5.124   3.770   2.190  0.00  0.00    +0.000 C 
ENDBRANCH  36  38
ENDBRANCH  35  36
BRANCH  35  42
ATOM     42  C18 UNK     0      -6.780  -0.244   0.291  0.00  0.00    +0.000 C 
BRANCH  42  43
ATOM     43  C19 UNK     0      -8.056  -0.751   1.001  0.00  0.00    +0.000 C 
ATOM     44  C23 UNK     0      -7.761  -1.937   1.930  0.00  0.00    +0.000 C 
ATOM     45  C22 UNK     0      -9.103  -1.156  -0.046  0.00  0.00    +0.000 C 
ENDBRANCH  42  43
ENDBRANCH  35  42
ENDBRANCH  32  35
ENDBRANCH  30  31
BRANCH  30  46
ATOM     46  C24 UNK     0      -2.727   0.747  -2.285  0.00  0.00    +0.000 C 
BRANCH  46  47
ATOM     47  C29 UNK     0      -3.200  -0.557  -2.882  0.00  0.00    +0.000 A 
ATOM     48  C37 UNK     0      -2.288  -1.449  -3.469  0.00  0.00    +0.000 A 
ATOM     49  C45 UNK     0      -2.731  -2.671  -3.983  0.00  0.00    +0.000 A 
ATOM     50  C47 UNK     0      -4.086  -3.010  -3.919  0.00  0.00    +0.000 A 
ATOM     51  C46 UNK     0      -5.000  -2.123  -3.347  0.00  0.00    +0.000 A 
ATOM     52  C38 UNK     0      -4.562  -0.899  -2.836  0.00  0.00    +0.000 A 
ENDBRANCH  46  47
ENDBRANCH  30  46
ENDBRANCH  27  30
ENDBRANCH   1  26
BRANCH   1  53
ATOM     53  C26 UNK     0       0.779  -1.073   2.338  0.00  0.00    +0.000 C 
BRANCH  53  54
ATOM     54  C28 UNK     0      -0.542  -1.793   2.734  0.00  0.00    +0.000 C 
ATOM     55  C33 UNK     0      -1.606  -0.795   3.216  0.00  0.00    +0.000 C 
ATOM     56  C34 UNK     0      -0.285  -2.837   3.830  0.00  0.00    +0.000 C 
ENDBRANCH  53  54
ENDBRANCH   1  53
TORSDOF 20
