REMARK  Name = C:\Users\Maximilian\Desktop\Conformers\converted_pdb\conformers_pdb\TAK_242_conf_61.pdb
REMARK  25 active torsions:
REMARK  status: ('A' for Active; 'I' for Inactive)
REMARK    1  A    between atoms: C25_1  and  N10_2
REMARK    2  A    between atoms: C25_1  and  C27_26
REMARK    3  A    between atoms: C25_1  and  C26_53
REMARK    4  A    between atoms: C31_4  and  C30_6
REMARK    5  A    between atoms: C30_6  and  C32_7
REMARK    6  A    between atoms: C30_6  and  N11_15
REMARK    7  A    between atoms: C32_7  and  C35_8
REMARK    8  A    between atoms: C35_8  and  C44_9
REMARK    9  A    between atoms: C41_16  and  C36_19
REMARK   10  A    between atoms: C36_19  and  N12_20
REMARK   11  A    between atoms: N9_27  and  C21_30
REMARK   12  A    between atoms: C21_30  and  C24_31
REMARK   13  A    between atoms: C21_30  and  C20_38
REMARK   14  A    between atoms: C24_31  and  C29_32
REMARK   15  A    between atoms: N8_39  and  C15_42
REMARK   16  A    between atoms: C15_42  and  C18_43
REMARK   17  A    between atoms: C15_42  and  C16_47
REMARK   18  A    between atoms: C18_43  and  C19_44
REMARK   19  A    between atoms: C19_44  and  C23_45
REMARK   20  A    between atoms: C19_44  and  C22_46
REMARK   21  A    between atoms: C16_47  and  C13_49
REMARK   22  A    between atoms: C13_49  and  C17_52
REMARK   23  A    between atoms: C26_53  and  C28_54
REMARK   24  A    between atoms: C28_54  and  C33_55
REMARK   25  A    between atoms: C28_54  and  C34_56
REMARK                            x       y       z     vdW  Elec       q    Type
REMARK                         _______ _______ _______ _____ _____    ______ ____
ROOT
ATOM      1  C25 UNK     0       0.238   1.198   1.883  0.00  0.00    +0.000 C 
ENDROOT
BRANCH   1   2
ATOM      2  N10 UNK     0       1.531   1.174   1.187  0.00  0.00    +0.000 N 
ATOM      3  H77 UNK     0       1.806   2.008   0.622  0.00  0.00    +0.000 HD
ATOM      4  C31 UNK     0       2.377   0.012   1.136  0.00  0.00    +0.000 C 
ATOM      5  O6  UNK     0       2.000  -1.075   1.652  0.00  0.00    +0.000 OA
BRANCH   4   6
ATOM      6  C30 UNK     0       3.699   0.074   0.411  0.00  0.00    +0.000 C 
BRANCH   6   7
ATOM      7  N11 UNK     0       4.733  -0.602   1.203  0.00  0.00    +0.000 N 
ATOM      8  C41 UNK     0       5.983   0.018   1.554  0.00  0.00    +0.000 C 
ATOM      9  O7  UNK     0       6.190   1.236   1.286  0.00  0.00    +0.000 OA
ATOM     10  H87 UNK     0       4.572  -1.600   1.483  0.00  0.00    +0.000 HD
BRANCH   8  11
ATOM     11  C36 UNK     0       7.058  -0.771   2.246  0.00  0.00    +0.000 C 
BRANCH  11  12
ATOM     12  N12 UNK     0       8.336  -0.655   1.519  0.00  0.00    +0.000 NA
ATOM     13  C39 UNK     0       9.460  -1.084   2.379  0.00  0.00    +0.000 C 
ATOM     14  C42 UNK     0      10.718  -1.341   1.533  0.00  0.00    +0.000 C 
ATOM     15  O5  UNK     0      10.560  -2.333   0.528  0.00  0.00    +0.000 OA
ATOM     16  C43 UNK     0       9.204  -2.615   0.208  0.00  0.00    +0.000 C 
ATOM     17  C40 UNK     0       8.310  -1.364   0.215  0.00  0.00    +0.000 C 
ENDBRANCH  11  12
ENDBRANCH   8  11
ENDBRANCH   6   7
BRANCH   6  18
ATOM     18  C32 UNK     0       3.613  -0.585  -0.976  0.00  0.00    +0.000 C 
BRANCH  18  19
ATOM     19  C35 UNK     0       2.712   0.194  -1.944  0.00  0.00    +0.000 C 
BRANCH  19  20
ATOM     20  C44 UNK     0       2.755  -0.426  -3.312  0.00  0.00    +0.000 A 
ATOM     21  C49 UNK     0       3.767  -0.064  -4.218  0.00  0.00    +0.000 A 
ATOM     22  C51 UNK     0       3.823  -0.656  -5.482  0.00  0.00    +0.000 A 
ATOM     23  C52 UNK     0       2.878  -1.619  -5.848  0.00  0.00    +0.000 A 
ATOM     24  C50 UNK     0       1.889  -2.004  -4.941  0.00  0.00    +0.000 A 
ATOM     25  C48 UNK     0       1.825  -1.413  -3.674  0.00  0.00    +0.000 A 
ENDBRANCH  19  20
ENDBRANCH  18  19
ENDBRANCH   6  18
ENDBRANCH   4   6
ENDBRANCH   1   2
BRANCH   1  26
ATOM     26  C27 UNK     0      -0.905   1.272   0.896  0.00  0.00    +0.000 C 
ATOM     27  N9  UNK     0      -2.267   1.317   1.357  0.00  0.00    +0.000 N 
ATOM     28  H73 UNK     0      -2.447   1.420   2.382  0.00  0.00    +0.000 HD
ATOM     29  O4  UNK     0      -0.662   1.204  -0.338  0.00  0.00    +0.000 OA
BRANCH  27  30
ATOM     30  C21 UNK     0      -3.438   1.068   0.499  0.00  0.00    +0.000 C 
BRANCH  30  31
ATOM     31  C20 UNK     0      -3.467  -0.366   0.027  0.00  0.00    +0.000 C 
ATOM     32  N8  UNK     0      -4.624  -0.887  -0.645  0.00  0.00    +0.000 N 
ATOM     33  H62 UNK     0      -5.338  -0.220  -1.013  0.00  0.00    +0.000 HD
ATOM     34  O3  UNK     0      -2.493  -1.131   0.272  0.00  0.00    +0.000 OA
BRANCH  32  35
ATOM     35  C15 UNK     0      -4.918  -2.321  -0.652  0.00  0.00    +0.000 C 
BRANCH  35  36
ATOM     36  C16 UNK     0      -5.442  -2.734   0.713  0.00  0.00    +0.000 C 
ATOM     37  O2  UNK     0      -4.753  -3.474   1.403  0.00  0.00    +0.000 OA
BRANCH  36  38
ATOM     38  C13 UNK     0      -6.758  -2.220   1.270  0.00  0.00    +0.000 C 
ATOM     39  O1  UNK     0      -6.932  -2.564   2.625  0.00  0.00    +0.000 OA
ATOM     40  C14 UNK     0      -7.767  -3.219   1.698  0.00  0.00    +0.000 C 
ATOM     41  C17 UNK     0      -7.226  -0.789   1.005  0.00  0.00    +0.000 C 
ENDBRANCH  36  38
ENDBRANCH  35  36
BRANCH  35  42
ATOM     42  C18 UNK     0      -5.883  -2.680  -1.805  0.00  0.00    +0.000 C 
BRANCH  42  43
ATOM     43  C19 UNK     0      -5.913  -4.207  -2.116  0.00  0.00    +0.000 C 
ATOM     44  C23 UNK     0      -5.590  -4.477  -3.591  0.00  0.00    +0.000 C 
ATOM     45  C22 UNK     0      -7.271  -4.830  -1.762  0.00  0.00    +0.000 C 
ENDBRANCH  42  43
ENDBRANCH  35  42
ENDBRANCH  32  35
ENDBRANCH  30  31
BRANCH  30  46
ATOM     46  C24 UNK     0      -3.538   2.074  -0.669  0.00  0.00    +0.000 C 
BRANCH  46  47
ATOM     47  C29 UNK     0      -3.415   3.498  -0.186  0.00  0.00    +0.000 A 
ATOM     48  C37 UNK     0      -2.283   4.263  -0.513  0.00  0.00    +0.000 A 
ATOM     49  C45 UNK     0      -2.166   5.579  -0.056  0.00  0.00    +0.000 A 
ATOM     50  C47 UNK     0      -3.177   6.139   0.729  0.00  0.00    +0.000 A 
ATOM     51  C46 UNK     0      -4.313   5.390   1.047  0.00  0.00    +0.000 A 
ATOM     52  C38 UNK     0      -4.431   4.073   0.596  0.00  0.00    +0.000 A 
ENDBRANCH  46  47
ENDBRANCH  30  46
ENDBRANCH  27  30
ENDBRANCH   1  26
BRANCH   1  53
ATOM     53  C26 UNK     0       0.218   2.327   2.941  0.00  0.00    +0.000 C 
BRANCH  53  54
ATOM     54  C28 UNK     0       0.210   3.774   2.366  0.00  0.00    +0.000 C 
ATOM     55  C33 UNK     0       1.606   4.413   2.413  0.00  0.00    +0.000 C 
ATOM     56  C34 UNK     0      -0.789   4.651   3.137  0.00  0.00    +0.000 C 
ENDBRANCH  53  54
ENDBRANCH   1  53
TORSDOF 20
