REMARK  Name = C:\Users\Maximilian\Desktop\Conformers\converted_pdb\conformers_pdb\TAK_242_conf_57.pdb
REMARK  25 active torsions:
REMARK  status: ('A' for Active; 'I' for Inactive)
REMARK    1  A    between atoms: C25_1  and  N10_2
REMARK    2  A    between atoms: C25_1  and  C27_26
REMARK    3  A    between atoms: C25_1  and  C26_53
REMARK    4  A    between atoms: C31_4  and  C30_6
REMARK    5  A    between atoms: C30_6  and  C32_7
REMARK    6  A    between atoms: C30_6  and  N11_15
REMARK    7  A    between atoms: C32_7  and  C35_8
REMARK    8  A    between atoms: C35_8  and  C44_9
REMARK    9  A    between atoms: C41_16  and  C36_19
REMARK   10  A    between atoms: C36_19  and  N12_20
REMARK   11  A    between atoms: N9_27  and  C21_30
REMARK   12  A    between atoms: C21_30  and  C24_31
REMARK   13  A    between atoms: C21_30  and  C20_38
REMARK   14  A    between atoms: C24_31  and  C29_32
REMARK   15  A    between atoms: N8_39  and  C15_42
REMARK   16  A    between atoms: C15_42  and  C18_43
REMARK   17  A    between atoms: C15_42  and  C16_47
REMARK   18  A    between atoms: C18_43  and  C19_44
REMARK   19  A    between atoms: C19_44  and  C23_45
REMARK   20  A    between atoms: C19_44  and  C22_46
REMARK   21  A    between atoms: C16_47  and  C13_49
REMARK   22  A    between atoms: C13_49  and  C17_52
REMARK   23  A    between atoms: C26_53  and  C28_54
REMARK   24  A    between atoms: C28_54  and  C33_55
REMARK   25  A    between atoms: C28_54  and  C34_56
REMARK                            x       y       z     vdW  Elec       q    Type
REMARK                         _______ _______ _______ _____ _____    ______ ____
ROOT
ATOM      1  C25 UNK     0      -0.309  -1.172  -0.297  0.00  0.00    +0.000 C 
ENDROOT
BRANCH   1   2
ATOM      2  N10 UNK     0       1.108  -1.322  -0.660  0.00  0.00    +0.000 N 
ATOM      3  H77 UNK     0       1.332  -2.136  -1.277  0.00  0.00    +0.000 HD
ATOM      4  C31 UNK     0       2.144  -0.359  -0.389  0.00  0.00    +0.000 C 
ATOM      5  O6  UNK     0       1.889   0.660   0.310  0.00  0.00    +0.000 OA
BRANCH   4   6
ATOM      6  C30 UNK     0       3.516  -0.490  -1.021  0.00  0.00    +0.000 C 
BRANCH   6   7
ATOM      7  N11 UNK     0       4.483   0.379  -0.340  0.00  0.00    +0.000 N 
ATOM      8  C41 UNK     0       4.700   1.746  -0.716  0.00  0.00    +0.000 C 
ATOM      9  O7  UNK     0       4.019   2.270  -1.641  0.00  0.00    +0.000 OA
ATOM     10  H87 UNK     0       4.957   0.031   0.519  0.00  0.00    +0.000 HD
BRANCH   8  11
ATOM     11  C36 UNK     0       5.749   2.557  -0.014  0.00  0.00    +0.000 C 
BRANCH  11  12
ATOM     12  N12 UNK     0       5.508   2.552   1.447  0.00  0.00    +0.000 NA
ATOM     13  C39 UNK     0       4.374   3.419   1.834  0.00  0.00    +0.000 C 
ATOM     14  C42 UNK     0       4.740   4.922   1.772  0.00  0.00    +0.000 C 
ATOM     15  O5  UNK     0       6.124   5.144   1.568  0.00  0.00    +0.000 OA
ATOM     16  C43 UNK     0       6.872   4.390   2.497  0.00  0.00    +0.000 C 
ATOM     17  C40 UNK     0       6.723   2.878   2.231  0.00  0.00    +0.000 C 
ENDBRANCH  11  12
ENDBRANCH   8  11
ENDBRANCH   6   7
BRANCH   6  18
ATOM     18  C32 UNK     0       4.050  -1.942  -1.077  0.00  0.00    +0.000 C 
BRANCH  18  19
ATOM     19  C35 UNK     0       4.022  -2.693   0.267  0.00  0.00    +0.000 C 
BRANCH  19  20
ATOM     20  C44 UNK     0       4.460  -4.122   0.082  0.00  0.00    +0.000 A 
ATOM     21  C49 UNK     0       3.529  -5.097  -0.322  0.00  0.00    +0.000 A 
ATOM     22  C51 UNK     0       3.938  -6.416  -0.543  0.00  0.00    +0.000 A 
ATOM     23  C52 UNK     0       5.277  -6.772  -0.347  0.00  0.00    +0.000 A 
ATOM     24  C50 UNK     0       6.211  -5.807   0.036  0.00  0.00    +0.000 A 
ATOM     25  C48 UNK     0       5.809  -4.482   0.235  0.00  0.00    +0.000 A 
ENDBRANCH  19  20
ENDBRANCH  18  19
ENDBRANCH   6  18
ENDBRANCH   4   6
ENDBRANCH   1   2
BRANCH   1  26
ATOM     26  C27 UNK     0      -0.979  -0.166  -1.187  0.00  0.00    +0.000 C 
ATOM     27  N9  UNK     0      -2.331  -0.384  -1.615  0.00  0.00    +0.000 N 
ATOM     28  H73 UNK     0      -2.841  -1.227  -1.265  0.00  0.00    +0.000 HD
ATOM     29  O4  UNK     0      -0.364   0.884  -1.527  0.00  0.00    +0.000 OA
BRANCH  27  30
ATOM     30  C21 UNK     0      -2.970   0.425  -2.656  0.00  0.00    +0.000 C 
BRANCH  30  31
ATOM     31  C20 UNK     0      -4.298   0.932  -2.148  0.00  0.00    +0.000 C 
ATOM     32  N8  UNK     0      -4.391   1.464  -0.816  0.00  0.00    +0.000 N 
ATOM     33  H62 UNK     0      -3.524   1.489  -0.233  0.00  0.00    +0.000 HD
ATOM     34  O3  UNK     0      -5.307   0.951  -2.906  0.00  0.00    +0.000 OA
BRANCH  32  35
ATOM     35  C15 UNK     0      -5.638   2.001  -0.265  0.00  0.00    +0.000 C 
BRANCH  35  36
ATOM     36  C16 UNK     0      -6.624   0.874  -0.026  0.00  0.00    +0.000 C 
ATOM     37  O2  UNK     0      -7.668   0.856  -0.659  0.00  0.00    +0.000 OA
BRANCH  36  38
ATOM     38  C13 UNK     0      -6.325  -0.248   0.942  0.00  0.00    +0.000 C 
ATOM     39  O1  UNK     0      -7.495  -0.886   1.401  0.00  0.00    +0.000 OA
ATOM     40  C14 UNK     0      -6.793  -0.099   2.340  0.00  0.00    +0.000 C 
ATOM     41  C17 UNK     0      -5.194  -1.239   0.654  0.00  0.00    +0.000 C 
ENDBRANCH  36  38
ENDBRANCH  35  36
BRANCH  35  42
ATOM     42  C18 UNK     0      -5.349   2.784   1.036  0.00  0.00    +0.000 C 
BRANCH  42  43
ATOM     43  C19 UNK     0      -6.553   3.611   1.552  0.00  0.00    +0.000 C 
ATOM     44  C23 UNK     0      -6.739   4.898   0.737  0.00  0.00    +0.000 C 
ATOM     45  C22 UNK     0      -6.364   3.951   3.037  0.00  0.00    +0.000 C 
ENDBRANCH  42  43
ENDBRANCH  35  42
ENDBRANCH  32  35
ENDBRANCH  30  31
BRANCH  30  46
ATOM     46  C24 UNK     0      -3.104  -0.409  -3.946  0.00  0.00    +0.000 C 
BRANCH  46  47
ATOM     47  C29 UNK     0      -1.760  -0.937  -4.382  0.00  0.00    +0.000 A 
ATOM     48  C37 UNK     0      -0.864  -0.105  -5.076  0.00  0.00    +0.000 A 
ATOM     49  C45 UNK     0       0.420  -0.564  -5.390  0.00  0.00    +0.000 A 
ATOM     50  C47 UNK     0       0.816  -1.853  -5.018  0.00  0.00    +0.000 A 
ATOM     51  C46 UNK     0      -0.072  -2.685  -4.328  0.00  0.00    +0.000 A 
ATOM     52  C38 UNK     0      -1.353  -2.230  -4.006  0.00  0.00    +0.000 A 
ENDBRANCH  46  47
ENDBRANCH  30  46
ENDBRANCH  27  30
ENDBRANCH   1  26
BRANCH   1  53
ATOM     53  C26 UNK     0      -0.541  -0.816   1.191  0.00  0.00    +0.000 C 
BRANCH  53  54
ATOM     54  C28 UNK     0       0.206  -1.726   2.193  0.00  0.00    +0.000 C 
ATOM     55  C33 UNK     0      -0.244  -3.191   2.084  0.00  0.00    +0.000 C 
ATOM     56  C34 UNK     0      -0.018  -1.214   3.624  0.00  0.00    +0.000 C 
ENDBRANCH  53  54
ENDBRANCH   1  53
TORSDOF 20
