REMARK  Name = C:\Users\Maximilian\Desktop\Conformers\converted_pdb\conformers_pdb\TAK_242_conf_91.pdb
REMARK  25 active torsions:
REMARK  status: ('A' for Active; 'I' for Inactive)
REMARK    1  A    between atoms: C25_1  and  N10_2
REMARK    2  A    between atoms: C25_1  and  C27_26
REMARK    3  A    between atoms: C25_1  and  C26_53
REMARK    4  A    between atoms: C31_4  and  C30_6
REMARK    5  A    between atoms: C30_6  and  C32_7
REMARK    6  A    between atoms: C30_6  and  N11_15
REMARK    7  A    between atoms: C32_7  and  C35_8
REMARK    8  A    between atoms: C35_8  and  C44_9
REMARK    9  A    between atoms: C41_16  and  C36_19
REMARK   10  A    between atoms: C36_19  and  N12_20
REMARK   11  A    between atoms: N9_27  and  C21_30
REMARK   12  A    between atoms: C21_30  and  C24_31
REMARK   13  A    between atoms: C21_30  and  C20_38
REMARK   14  A    between atoms: C24_31  and  C29_32
REMARK   15  A    between atoms: N8_39  and  C15_42
REMARK   16  A    between atoms: C15_42  and  C18_43
REMARK   17  A    between atoms: C15_42  and  C16_47
REMARK   18  A    between atoms: C18_43  and  C19_44
REMARK   19  A    between atoms: C19_44  and  C23_45
REMARK   20  A    between atoms: C19_44  and  C22_46
REMARK   21  A    between atoms: C16_47  and  C13_49
REMARK   22  A    between atoms: C13_49  and  C17_52
REMARK   23  A    between atoms: C26_53  and  C28_54
REMARK   24  A    between atoms: C28_54  and  C33_55
REMARK   25  A    between atoms: C28_54  and  C34_56
REMARK                            x       y       z     vdW  Elec       q    Type
REMARK                         _______ _______ _______ _____ _____    ______ ____
ROOT
ATOM      1  C25 UNK     0       1.090   0.920   1.463  0.00  0.00    +0.000 C 
ENDROOT
BRANCH   1   2
ATOM      2  N10 UNK     0       2.413   0.418   1.073  0.00  0.00    +0.000 N 
ATOM      3  H77 UNK     0       3.257   0.958   1.354  0.00  0.00    +0.000 HD
ATOM      4  C31 UNK     0       2.602  -0.909   0.546  0.00  0.00    +0.000 C 
ATOM      5  O6  UNK     0       1.608  -1.667   0.370  0.00  0.00    +0.000 OA
BRANCH   4   6
ATOM      6  C30 UNK     0       3.986  -1.421   0.223  0.00  0.00    +0.000 C 
BRANCH   6   7
ATOM      7  N11 UNK     0       4.721  -0.457  -0.605  0.00  0.00    +0.000 N 
ATOM      8  C41 UNK     0       5.879  -0.847  -1.363  0.00  0.00    +0.000 C 
ATOM      9  O7  UNK     0       6.115  -2.068  -1.582  0.00  0.00    +0.000 OA
ATOM     10  H87 UNK     0       4.479   0.566  -0.568  0.00  0.00    +0.000 HD
BRANCH   8  11
ATOM     11  C36 UNK     0       6.809   0.191  -1.924  0.00  0.00    +0.000 C 
BRANCH  11  12
ATOM     12  N12 UNK     0       7.234   1.158  -0.891  0.00  0.00    +0.000 NA
ATOM     13  C39 UNK     0       8.047   2.253  -1.482  0.00  0.00    +0.000 C 
ATOM     14  C42 UNK     0       9.550   2.060  -1.204  0.00  0.00    +0.000 C 
ATOM     15  O5  UNK     0       9.862   2.041   0.181  0.00  0.00    +0.000 OA
ATOM     16  C43 UNK     0       8.846   1.463   0.990  0.00  0.00    +0.000 C 
ATOM     17  C40 UNK     0       7.922   0.488   0.239  0.00  0.00    +0.000 C 
ENDBRANCH  11  12
ENDBRANCH   8  11
ENDBRANCH   6   7
BRANCH   6  18
ATOM     18  C32 UNK     0       4.786  -1.728   1.508  0.00  0.00    +0.000 C 
BRANCH  18  19
ATOM     19  C35 UNK     0       4.215  -2.896   2.327  0.00  0.00    +0.000 C 
BRANCH  19  20
ATOM     20  C44 UNK     0       4.340  -4.213   1.599  0.00  0.00    +0.000 A 
ATOM     21  C49 UNK     0       3.220  -4.790   0.979  0.00  0.00    +0.000 A 
ATOM     22  C51 UNK     0       3.345  -5.999   0.289  0.00  0.00    +0.000 A 
ATOM     23  C52 UNK     0       4.583  -6.637   0.201  0.00  0.00    +0.000 A 
ATOM     24  C50 UNK     0       5.701  -6.072   0.814  0.00  0.00    +0.000 A 
ATOM     25  C48 UNK     0       5.584  -4.864   1.509  0.00  0.00    +0.000 A 
ENDBRANCH  19  20
ENDBRANCH  18  19
ENDBRANCH   6  18
ENDBRANCH   4   6
ENDBRANCH   1   2
BRANCH   1  26
ATOM     26  C27 UNK     0       0.079   0.801   0.348  0.00  0.00    +0.000 C 
ATOM     27  N9  UNK     0      -1.312   0.654   0.672  0.00  0.00    +0.000 N 
ATOM     28  H73 UNK     0      -1.583   0.728   1.677  0.00  0.00    +0.000 HD
ATOM     29  O4  UNK     0       0.455   0.813  -0.858  0.00  0.00    +0.000 OA
BRANCH  27  30
ATOM     30  C21 UNK     0      -2.325   0.288  -0.327  0.00  0.00    +0.000 C 
BRANCH  30  31
ATOM     31  C20 UNK     0      -3.712   0.453   0.254  0.00  0.00    +0.000 C 
ATOM     32  N8  UNK     0      -4.743   1.106  -0.510  0.00  0.00    +0.000 N 
ATOM     33  H62 UNK     0      -4.494   1.491  -1.454  0.00  0.00    +0.000 HD
ATOM     34  O3  UNK     0      -3.981  -0.054   1.377  0.00  0.00    +0.000 OA
BRANCH  32  35
ATOM     35  C15 UNK     0      -6.152   1.071  -0.101  0.00  0.00    +0.000 C 
BRANCH  35  36
ATOM     36  C16 UNK     0      -6.900   2.209  -0.766  0.00  0.00    +0.000 C 
ATOM     37  O2  UNK     0      -6.985   2.230  -1.989  0.00  0.00    +0.000 OA
BRANCH  36  38
ATOM     38  C13 UNK     0      -7.492   3.343   0.040  0.00  0.00    +0.000 C 
ATOM     39  O1  UNK     0      -8.225   4.243  -0.770  0.00  0.00    +0.000 OA
ATOM     40  C14 UNK     0      -7.001   4.720  -0.236  0.00  0.00    +0.000 C 
ATOM     41  C17 UNK     0      -8.210   3.084   1.370  0.00  0.00    +0.000 C 
ENDBRANCH  36  38
ENDBRANCH  35  36
BRANCH  35  42
ATOM     42  C18 UNK     0      -6.764  -0.296  -0.490  0.00  0.00    +0.000 C 
BRANCH  42  43
ATOM     43  C19 UNK     0      -8.223  -0.502  -0.013  0.00  0.00    +0.000 C 
ATOM     44  C23 UNK     0      -8.300  -0.733   1.506  0.00  0.00    +0.000 C 
ATOM     45  C22 UNK     0      -8.845  -1.697  -0.750  0.00  0.00    +0.000 C 
ENDBRANCH  42  43
ENDBRANCH  35  42
ENDBRANCH  32  35
ENDBRANCH  30  31
BRANCH  30  46
ATOM     46  C24 UNK     0      -2.105  -1.164  -0.808  0.00  0.00    +0.000 C 
BRANCH  46  47
ATOM     47  C29 UNK     0      -3.142  -1.602  -1.817  0.00  0.00    +0.000 A 
ATOM     48  C37 UNK     0      -3.155  -1.043  -3.108  0.00  0.00    +0.000 A 
ATOM     49  C45 UNK     0      -4.141  -1.420  -4.025  0.00  0.00    +0.000 A 
ATOM     50  C47 UNK     0      -5.127  -2.341  -3.663  0.00  0.00    +0.000 A 
ATOM     51  C46 UNK     0      -5.125  -2.893  -2.379  0.00  0.00    +0.000 A 
ATOM     52  C38 UNK     0      -4.133  -2.535  -1.460  0.00  0.00    +0.000 A 
ENDBRANCH  46  47
ENDBRANCH  30  46
ENDBRANCH  27  30
ENDBRANCH   1  26
BRANCH   1  53
ATOM     53  C26 UNK     0       1.160   2.355   2.045  0.00  0.00    +0.000 C 
BRANCH  53  54
ATOM     54  C28 UNK     0       1.792   3.451   1.139  0.00  0.00    +0.000 C 
ATOM     55  C33 UNK     0       2.177   4.669   1.996  0.00  0.00    +0.000 C 
ATOM     56  C34 UNK     0       0.853   3.913   0.008  0.00  0.00    +0.000 C 
ENDBRANCH  53  54
ENDBRANCH   1  53
TORSDOF 20
