REMARK  Name = C:\Users\Maximilian\Desktop\Conformers\converted_pdb\conformers_pdb\TAK_242_conf_48.pdb
REMARK  25 active torsions:
REMARK  status: ('A' for Active; 'I' for Inactive)
REMARK    1  A    between atoms: C25_1  and  N10_2
REMARK    2  A    between atoms: C25_1  and  C27_26
REMARK    3  A    between atoms: C25_1  and  C26_53
REMARK    4  A    between atoms: C31_4  and  C30_6
REMARK    5  A    between atoms: C30_6  and  C32_7
REMARK    6  A    between atoms: C30_6  and  N11_15
REMARK    7  A    between atoms: C32_7  and  C35_8
REMARK    8  A    between atoms: C35_8  and  C44_9
REMARK    9  A    between atoms: C41_16  and  C36_19
REMARK   10  A    between atoms: C36_19  and  N12_20
REMARK   11  A    between atoms: N9_27  and  C21_30
REMARK   12  A    between atoms: C21_30  and  C24_31
REMARK   13  A    between atoms: C21_30  and  C20_38
REMARK   14  A    between atoms: C24_31  and  C29_32
REMARK   15  A    between atoms: N8_39  and  C15_42
REMARK   16  A    between atoms: C15_42  and  C18_43
REMARK   17  A    between atoms: C15_42  and  C16_47
REMARK   18  A    between atoms: C18_43  and  C19_44
REMARK   19  A    between atoms: C19_44  and  C23_45
REMARK   20  A    between atoms: C19_44  and  C22_46
REMARK   21  A    between atoms: C16_47  and  C13_49
REMARK   22  A    between atoms: C13_49  and  C17_52
REMARK   23  A    between atoms: C26_53  and  C28_54
REMARK   24  A    between atoms: C28_54  and  C33_55
REMARK   25  A    between atoms: C28_54  and  C34_56
REMARK                            x       y       z     vdW  Elec       q    Type
REMARK                         _______ _______ _______ _____ _____    ______ ____
ROOT
ATOM      1  C25 UNK     0       0.798  -0.064  -1.492  0.00  0.00    +0.000 C 
ENDROOT
BRANCH   1   2
ATOM      2  N10 UNK     0       1.975   0.107  -0.630  0.00  0.00    +0.000 N 
ATOM      3  H77 UNK     0       2.582  -0.718  -0.427  0.00  0.00    +0.000 HD
ATOM      4  C31 UNK     0       2.363   1.390  -0.107  0.00  0.00    +0.000 C 
ATOM      5  O6  UNK     0       1.593   2.382  -0.235  0.00  0.00    +0.000 OA
BRANCH   4   6
ATOM      6  C30 UNK     0       3.707   1.592   0.556  0.00  0.00    +0.000 C 
BRANCH   6   7
ATOM      7  N11 UNK     0       4.128   0.373   1.257  0.00  0.00    +0.000 N 
ATOM      8  C41 UNK     0       3.414  -0.142   2.393  0.00  0.00    +0.000 C 
ATOM      9  O7  UNK     0       2.474   0.522   2.911  0.00  0.00    +0.000 OA
ATOM     10  H87 UNK     0       4.948  -0.172   0.895  0.00  0.00    +0.000 HD
BRANCH   8  11
ATOM     11  C36 UNK     0       3.745  -1.503   2.937  0.00  0.00    +0.000 C 
BRANCH  11  12
ATOM     12  N12 UNK     0       3.905  -1.470   4.409  0.00  0.00    +0.000 NA
ATOM     13  C39 UNK     0       5.127  -0.752   4.834  0.00  0.00    +0.000 C 
ATOM     14  C42 UNK     0       6.415  -1.565   4.556  0.00  0.00    +0.000 C 
ATOM     15  O5  UNK     0       6.154  -2.913   4.208  0.00  0.00    +0.000 OA
ATOM     16  C43 UNK     0       5.248  -3.478   5.132  0.00  0.00    +0.000 C 
ATOM     17  C40 UNK     0       3.855  -2.825   5.008  0.00  0.00    +0.000 C 
ENDBRANCH  11  12
ENDBRANCH   8  11
ENDBRANCH   6   7
BRANCH   6  18
ATOM     18  C32 UNK     0       4.769   2.001  -0.484  0.00  0.00    +0.000 C 
BRANCH  18  19
ATOM     19  C35 UNK     0       4.484   3.374  -1.109  0.00  0.00    +0.000 C 
BRANCH  19  20
ATOM     20  C44 UNK     0       5.626   3.804  -1.990  0.00  0.00    +0.000 A 
ATOM     21  C49 UNK     0       6.689   4.550  -1.456  0.00  0.00    +0.000 A 
ATOM     22  C51 UNK     0       7.754   4.941  -2.272  0.00  0.00    +0.000 A 
ATOM     23  C52 UNK     0       7.770   4.585  -3.624  0.00  0.00    +0.000 A 
ATOM     24  C50 UNK     0       6.729   3.820  -4.158  0.00  0.00    +0.000 A 
ATOM     25  C48 UNK     0       5.660   3.428  -3.345  0.00  0.00    +0.000 A 
ENDBRANCH  19  20
ENDBRANCH  18  19
ENDBRANCH   6  18
ENDBRANCH   4   6
ENDBRANCH   1   2
BRANCH   1  26
ATOM     26  C27 UNK     0      -0.459   0.323  -0.753  0.00  0.00    +0.000 C 
ATOM     27  N9  UNK     0      -1.562   0.884  -1.482  0.00  0.00    +0.000 N 
ATOM     28  H73 UNK     0      -1.446   0.993  -2.514  0.00  0.00    +0.000 HD
ATOM     29  O4  UNK     0      -0.557   0.109   0.485  0.00  0.00    +0.000 OA
BRANCH  27  30
ATOM     30  C21 UNK     0      -2.776   1.390  -0.828  0.00  0.00    +0.000 C 
BRANCH  30  31
ATOM     31  C20 UNK     0      -3.551   0.272  -0.169  0.00  0.00    +0.000 C 
ATOM     32  N8  UNK     0      -4.567   0.584   0.795  0.00  0.00    +0.000 N 
ATOM     33  H62 UNK     0      -4.912   1.571   0.845  0.00  0.00    +0.000 HD
ATOM     34  O3  UNK     0      -3.314  -0.932  -0.479  0.00  0.00    +0.000 OA
BRANCH  32  35
ATOM     35  C15 UNK     0      -5.154  -0.411   1.697  0.00  0.00    +0.000 C 
BRANCH  35  36
ATOM     36  C16 UNK     0      -5.200   0.151   3.099  0.00  0.00    +0.000 C 
ATOM     37  O2  UNK     0      -5.841   1.170   3.323  0.00  0.00    +0.000 OA
BRANCH  36  38
ATOM     38  C13 UNK     0      -4.496  -0.551   4.229  0.00  0.00    +0.000 C 
ATOM     39  O1  UNK     0      -4.523   0.191   5.428  0.00  0.00    +0.000 OA
ATOM     40  C14 UNK     0      -3.272   0.077   4.781  0.00  0.00    +0.000 C 
ATOM     41  C17 UNK     0      -4.736  -2.040   4.469  0.00  0.00    +0.000 C 
ENDBRANCH  36  38
ENDBRANCH  35  36
BRANCH  35  42
ATOM     42  C18 UNK     0      -6.580  -0.785   1.237  0.00  0.00    +0.000 C 
BRANCH  42  43
ATOM     43  C19 UNK     0      -6.610  -1.715   0.001  0.00  0.00    +0.000 C 
ATOM     44  C23 UNK     0      -7.989  -1.655  -0.672  0.00  0.00    +0.000 C 
ATOM     45  C22 UNK     0      -6.283  -3.169   0.376  0.00  0.00    +0.000 C 
ENDBRANCH  42  43
ENDBRANCH  35  42
ENDBRANCH  32  35
ENDBRANCH  30  31
BRANCH  30  46
ATOM     46  C24 UNK     0      -3.653   2.192  -1.821  0.00  0.00    +0.000 C 
BRANCH  46  47
ATOM     47  C29 UNK     0      -4.268   1.345  -2.912  0.00  0.00    +0.000 A 
ATOM     48  C37 UNK     0      -3.622   1.194  -4.153  0.00  0.00    +0.000 A 
ATOM     49  C45 UNK     0      -4.190   0.394  -5.148  0.00  0.00    +0.000 A 
ATOM     50  C47 UNK     0      -5.403  -0.261  -4.914  0.00  0.00    +0.000 A 
ATOM     51  C46 UNK     0      -6.059  -0.101  -3.690  0.00  0.00    +0.000 A 
ATOM     52  C38 UNK     0      -5.499   0.703  -2.695  0.00  0.00    +0.000 A 
ENDBRANCH  46  47
ENDBRANCH  30  46
ENDBRANCH  27  30
ENDBRANCH   1  26
BRANCH   1  53
ATOM     53  C26 UNK     0       0.679  -1.526  -1.998  0.00  0.00    +0.000 C 
BRANCH  53  54
ATOM     54  C28 UNK     0       1.483  -1.845  -3.285  0.00  0.00    +0.000 C 
ATOM     55  C33 UNK     0       2.979  -1.525  -3.160  0.00  0.00    +0.000 C 
ATOM     56  C34 UNK     0       0.879  -1.169  -4.526  0.00  0.00    +0.000 C 
ENDBRANCH  53  54
ENDBRANCH   1  53
TORSDOF 20
