REMARK  Name = C:\Users\Maximilian\Desktop\Conformers\converted_pdb\conformers_pdb\TAK_242_conf_44.pdb
REMARK  25 active torsions:
REMARK  status: ('A' for Active; 'I' for Inactive)
REMARK    1  A    between atoms: C25_1  and  N10_2
REMARK    2  A    between atoms: C25_1  and  C27_26
REMARK    3  A    between atoms: C25_1  and  C26_53
REMARK    4  A    between atoms: C31_4  and  C30_6
REMARK    5  A    between atoms: C30_6  and  C32_7
REMARK    6  A    between atoms: C30_6  and  N11_15
REMARK    7  A    between atoms: C32_7  and  C35_8
REMARK    8  A    between atoms: C35_8  and  C44_9
REMARK    9  A    between atoms: C41_16  and  C36_19
REMARK   10  A    between atoms: C36_19  and  N12_20
REMARK   11  A    between atoms: N9_27  and  C21_30
REMARK   12  A    between atoms: C21_30  and  C24_31
REMARK   13  A    between atoms: C21_30  and  C20_38
REMARK   14  A    between atoms: C24_31  and  C29_32
REMARK   15  A    between atoms: N8_39  and  C15_42
REMARK   16  A    between atoms: C15_42  and  C18_43
REMARK   17  A    between atoms: C15_42  and  C16_47
REMARK   18  A    between atoms: C18_43  and  C19_44
REMARK   19  A    between atoms: C19_44  and  C23_45
REMARK   20  A    between atoms: C19_44  and  C22_46
REMARK   21  A    between atoms: C16_47  and  C13_49
REMARK   22  A    between atoms: C13_49  and  C17_52
REMARK   23  A    between atoms: C26_53  and  C28_54
REMARK   24  A    between atoms: C28_54  and  C33_55
REMARK   25  A    between atoms: C28_54  and  C34_56
REMARK                            x       y       z     vdW  Elec       q    Type
REMARK                         _______ _______ _______ _____ _____    ______ ____
ROOT
ATOM      1  C25 UNK     0       0.768  -0.370  -2.052  0.00  0.00    +0.000 C 
ENDROOT
BRANCH   1   2
ATOM      2  N10 UNK     0       1.597  -0.894  -0.955  0.00  0.00    +0.000 N 
ATOM      3  H77 UNK     0       1.170  -1.615  -0.321  0.00  0.00    +0.000 HD
ATOM      4  C31 UNK     0       2.837  -0.290  -0.555  0.00  0.00    +0.000 C 
ATOM      5  O6  UNK     0       3.442   0.483  -1.340  0.00  0.00    +0.000 OA
BRANCH   4   6
ATOM      6  C30 UNK     0       3.443  -0.629   0.786  0.00  0.00    +0.000 C 
BRANCH   6   7
ATOM      7  N11 UNK     0       4.566  -1.549   0.594  0.00  0.00    +0.000 N 
ATOM      8  C41 UNK     0       4.958  -2.495   1.598  0.00  0.00    +0.000 C 
ATOM      9  O7  UNK     0       4.267  -2.640   2.642  0.00  0.00    +0.000 OA
ATOM     10  H87 UNK     0       5.201  -1.412  -0.223  0.00  0.00    +0.000 HD
BRANCH   8  11
ATOM     11  C36 UNK     0       6.198  -3.326   1.413  0.00  0.00    +0.000 C 
BRANCH  11  12
ATOM     12  N12 UNK     0       7.384  -2.471   1.191  0.00  0.00    +0.000 NA
ATOM     13  C39 UNK     0       8.563  -3.279   0.791  0.00  0.00    +0.000 C 
ATOM     14  C42 UNK     0       9.563  -3.452   1.950  0.00  0.00    +0.000 C 
ATOM     15  O5  UNK     0      10.061  -2.219   2.451  0.00  0.00    +0.000 OA
ATOM     16  C43 UNK     0       9.130  -1.154   2.383  0.00  0.00    +0.000 C 
ATOM     17  C40 UNK     0       7.658  -1.609   2.366  0.00  0.00    +0.000 C 
ENDBRANCH  11  12
ENDBRANCH   8  11
ENDBRANCH   6   7
BRANCH   6  18
ATOM     18  C32 UNK     0       3.932   0.622   1.535  0.00  0.00    +0.000 C 
BRANCH  18  19
ATOM     19  C35 UNK     0       2.770   1.561   1.890  0.00  0.00    +0.000 C 
BRANCH  19  20
ATOM     20  C44 UNK     0       3.265   2.731   2.696  0.00  0.00    +0.000 A 
ATOM     21  C49 UNK     0       3.277   2.675   4.100  0.00  0.00    +0.000 A 
ATOM     22  C51 UNK     0       3.785   3.748   4.845  0.00  0.00    +0.000 A 
ATOM     23  C52 UNK     0       4.278   4.882   4.194  0.00  0.00    +0.000 A 
ATOM     24  C50 UNK     0       4.276   4.940   2.796  0.00  0.00    +0.000 A 
ATOM     25  C48 UNK     0       3.777   3.867   2.050  0.00  0.00    +0.000 A 
ENDBRANCH  19  20
ENDBRANCH  18  19
ENDBRANCH   6  18
ENDBRANCH   4   6
ENDBRANCH   1   2
BRANCH   1  26
ATOM     26  C27 UNK     0      -0.429   0.354  -1.482  0.00  0.00    +0.000 C 
ATOM     27  N9  UNK     0      -1.492   0.793  -2.344  0.00  0.00    +0.000 N 
ATOM     28  H73 UNK     0      -1.385   0.693  -3.377  0.00  0.00    +0.000 HD
ATOM     29  O4  UNK     0      -0.441   0.672  -0.260  0.00  0.00    +0.000 OA
BRANCH  27  30
ATOM     30  C21 UNK     0      -2.808   1.166  -1.816  0.00  0.00    +0.000 C 
BRANCH  30  31
ATOM     31  C20 UNK     0      -3.649  -0.069  -1.617  0.00  0.00    +0.000 C 
ATOM     32  N8  UNK     0      -4.528  -0.165  -0.487  0.00  0.00    +0.000 N 
ATOM     33  H62 UNK     0      -4.807   0.714  -0.001  0.00  0.00    +0.000 HD
ATOM     34  O3  UNK     0      -3.601  -1.009  -2.457  0.00  0.00    +0.000 OA
BRANCH  32  35
ATOM     35  C15 UNK     0      -5.049  -1.448  -0.003  0.00  0.00    +0.000 C 
BRANCH  35  36
ATOM     36  C16 UNK     0      -5.139  -1.444   1.515  0.00  0.00    +0.000 C 
ATOM     37  O2  UNK     0      -6.155  -1.822   2.081  0.00  0.00    +0.000 OA
BRANCH  36  38
ATOM     38  C13 UNK     0      -3.953  -1.048   2.353  0.00  0.00    +0.000 C 
ATOM     39  O1  UNK     0      -2.772  -1.725   1.974  0.00  0.00    +0.000 OA
ATOM     40  C14 UNK     0      -3.345  -2.097   3.212  0.00  0.00    +0.000 C 
ATOM     41  C17 UNK     0      -3.694   0.421   2.682  0.00  0.00    +0.000 C 
ENDBRANCH  36  38
ENDBRANCH  35  36
BRANCH  35  42
ATOM     42  C18 UNK     0      -6.376  -1.814  -0.719  0.00  0.00    +0.000 C 
BRANCH  42  43
ATOM     43  C19 UNK     0      -7.352  -0.636  -0.978  0.00  0.00    +0.000 C 
ATOM     44  C23 UNK     0      -7.852   0.032   0.312  0.00  0.00    +0.000 C 
ATOM     45  C22 UNK     0      -8.552  -1.118  -1.804  0.00  0.00    +0.000 C 
ENDBRANCH  42  43
ENDBRANCH  35  42
ENDBRANCH  32  35
ENDBRANCH  30  31
BRANCH  30  46
ATOM     46  C24 UNK     0      -3.492   2.163  -2.764  0.00  0.00    +0.000 C 
BRANCH  46  47
ATOM     47  C29 UNK     0      -4.758   2.732  -2.166  0.00  0.00    +0.000 A 
ATOM     48  C37 UNK     0      -6.011   2.425  -2.723  0.00  0.00    +0.000 A 
ATOM     49  C45 UNK     0      -7.181   2.934  -2.150  0.00  0.00    +0.000 A 
ATOM     50  C47 UNK     0      -7.110   3.749  -1.016  0.00  0.00    +0.000 A 
ATOM     51  C46 UNK     0      -5.866   4.072  -0.470  0.00  0.00    +0.000 A 
ATOM     52  C38 UNK     0      -4.693   3.576  -1.043  0.00  0.00    +0.000 A 
ENDBRANCH  46  47
ENDBRANCH  30  46
ENDBRANCH  27  30
ENDBRANCH   1  26
BRANCH   1  53
ATOM     53  C26 UNK     0       0.351  -1.533  -2.993  0.00  0.00    +0.000 C 
BRANCH  53  54
ATOM     54  C28 UNK     0       1.067  -1.542  -4.369  0.00  0.00    +0.000 C 
ATOM     55  C33 UNK     0       2.592  -1.629  -4.246  0.00  0.00    +0.000 C 
ATOM     56  C34 UNK     0       0.647  -0.359  -5.258  0.00  0.00    +0.000 C 
ENDBRANCH  53  54
ENDBRANCH   1  53
TORSDOF 20
