REMARK  Name = C:\Users\Maximilian\Desktop\Conformers\converted_pdb\conformers_pdb\TAK_242_conf_58.pdb
REMARK  25 active torsions:
REMARK  status: ('A' for Active; 'I' for Inactive)
REMARK    1  A    between atoms: C25_1  and  N10_2
REMARK    2  A    between atoms: C25_1  and  C27_26
REMARK    3  A    between atoms: C25_1  and  C26_53
REMARK    4  A    between atoms: C31_4  and  C30_6
REMARK    5  A    between atoms: C30_6  and  C32_7
REMARK    6  A    between atoms: C30_6  and  N11_15
REMARK    7  A    between atoms: C32_7  and  C35_8
REMARK    8  A    between atoms: C35_8  and  C44_9
REMARK    9  A    between atoms: C41_16  and  C36_19
REMARK   10  A    between atoms: C36_19  and  N12_20
REMARK   11  A    between atoms: N9_27  and  C21_30
REMARK   12  A    between atoms: C21_30  and  C24_31
REMARK   13  A    between atoms: C21_30  and  C20_38
REMARK   14  A    between atoms: C24_31  and  C29_32
REMARK   15  A    between atoms: N8_39  and  C15_42
REMARK   16  A    between atoms: C15_42  and  C18_43
REMARK   17  A    between atoms: C15_42  and  C16_47
REMARK   18  A    between atoms: C18_43  and  C19_44
REMARK   19  A    between atoms: C19_44  and  C23_45
REMARK   20  A    between atoms: C19_44  and  C22_46
REMARK   21  A    between atoms: C16_47  and  C13_49
REMARK   22  A    between atoms: C13_49  and  C17_52
REMARK   23  A    between atoms: C26_53  and  C28_54
REMARK   24  A    between atoms: C28_54  and  C33_55
REMARK   25  A    between atoms: C28_54  and  C34_56
REMARK                            x       y       z     vdW  Elec       q    Type
REMARK                         _______ _______ _______ _____ _____    ______ ____
ROOT
ATOM      1  C25 UNK     0       0.200   2.264  -0.443  0.00  0.00    +0.000 C 
ENDROOT
BRANCH   1   2
ATOM      2  N10 UNK     0       1.529   1.637  -0.524  0.00  0.00    +0.000 N 
ATOM      3  H77 UNK     0       1.633   0.613  -0.334  0.00  0.00    +0.000 HD
ATOM      4  C31 UNK     0       2.717   2.407  -0.788  0.00  0.00    +0.000 C 
ATOM      5  O6  UNK     0       2.663   3.665  -0.720  0.00  0.00    +0.000 OA
BRANCH   4   6
ATOM      6  C30 UNK     0       4.049   1.728  -1.055  0.00  0.00    +0.000 C 
BRANCH   6   7
ATOM      7  N11 UNK     0       3.850   0.321  -1.417  0.00  0.00    +0.000 N 
ATOM      8  C41 UNK     0       4.688  -0.734  -0.924  0.00  0.00    +0.000 C 
ATOM      9  O7  UNK     0       5.704  -0.468  -0.228  0.00  0.00    +0.000 OA
ATOM     10  H87 UNK     0       3.177   0.095  -2.182  0.00  0.00    +0.000 HD
BRANCH   8  11
ATOM     11  C36 UNK     0       4.403  -2.157  -1.303  0.00  0.00    +0.000 C 
BRANCH  11  12
ATOM     12  N12 UNK     0       4.730  -3.072  -0.191  0.00  0.00    +0.000 NA
ATOM     13  C39 UNK     0       4.879  -4.454  -0.691  0.00  0.00    +0.000 C 
ATOM     14  C42 UNK     0       4.931  -5.465   0.474  0.00  0.00    +0.000 C 
ATOM     15  O5  UNK     0       5.183  -4.808   1.700  0.00  0.00    +0.000 OA
ATOM     16  C43 UNK     0       4.091  -3.963   2.028  0.00  0.00    +0.000 C 
ATOM     17  C40 UNK     0       3.700  -3.028   0.864  0.00  0.00    +0.000 C 
ENDBRANCH  11  12
ENDBRANCH   8  11
ENDBRANCH   6   7
BRANCH   6  18
ATOM     18  C32 UNK     0       4.837   2.413  -2.197  0.00  0.00    +0.000 C 
BRANCH  18  19
ATOM     19  C35 UNK     0       5.555   3.716  -1.803  0.00  0.00    +0.000 C 
BRANCH  19  20
ATOM     20  C44 UNK     0       6.566   3.508  -0.703  0.00  0.00    +0.000 A 
ATOM     21  C49 UNK     0       6.282   3.928   0.608  0.00  0.00    +0.000 A 
ATOM     22  C51 UNK     0       7.204   3.699   1.633  0.00  0.00    +0.000 A 
ATOM     23  C52 UNK     0       8.416   3.056   1.357  0.00  0.00    +0.000 A 
ATOM     24  C50 UNK     0       8.707   2.638   0.055  0.00  0.00    +0.000 A 
ATOM     25  C48 UNK     0       7.786   2.861  -0.973  0.00  0.00    +0.000 A 
ENDBRANCH  19  20
ENDBRANCH  18  19
ENDBRANCH   6  18
ENDBRANCH   4   6
ENDBRANCH   1   2
BRANCH   1  26
ATOM     26  C27 UNK     0      -0.832   1.340   0.166  0.00  0.00    +0.000 C 
ATOM     27  N9  UNK     0      -2.014   1.894   0.758  0.00  0.00    +0.000 N 
ATOM     28  H73 UNK     0      -2.172   2.924   0.683  0.00  0.00    +0.000 HD
ATOM     29  O4  UNK     0      -0.688   0.087   0.110  0.00  0.00    +0.000 OA
BRANCH  27  30
ATOM     30  C21 UNK     0      -3.020   1.052   1.412  0.00  0.00    +0.000 C 
BRANCH  30  31
ATOM     31  C20 UNK     0      -3.846   0.344   0.367  0.00  0.00    +0.000 C 
ATOM     32  N8  UNK     0      -3.955  -1.086   0.374  0.00  0.00    +0.000 N 
ATOM     33  H62 UNK     0      -3.431  -1.615   1.108  0.00  0.00    +0.000 HD
ATOM     34  O3  UNK     0      -4.452   1.020  -0.508  0.00  0.00    +0.000 OA
BRANCH  32  35
ATOM     35  C15 UNK     0      -4.897  -1.808  -0.492  0.00  0.00    +0.000 C 
BRANCH  35  36
ATOM     36  C16 UNK     0      -4.432  -3.226  -0.749  0.00  0.00    +0.000 C 
ATOM     37  O2  UNK     0      -3.908  -3.877   0.145  0.00  0.00    +0.000 OA
BRANCH  36  38
ATOM     38  C13 UNK     0      -4.618  -3.847  -2.109  0.00  0.00    +0.000 C 
ATOM     39  O1  UNK     0      -3.820  -4.993  -2.303  0.00  0.00    +0.000 OA
ATOM     40  C14 UNK     0      -3.459  -3.836  -3.029  0.00  0.00    +0.000 C 
ATOM     41  C17 UNK     0      -6.017  -4.005  -2.700  0.00  0.00    +0.000 C 
ENDBRANCH  36  38
ENDBRANCH  35  36
BRANCH  35  42
ATOM     42  C18 UNK     0      -6.328  -1.752   0.093  0.00  0.00    +0.000 C 
BRANCH  42  43
ATOM     43  C19 UNK     0      -6.512  -2.458   1.468  0.00  0.00    +0.000 C 
ATOM     44  C23 UNK     0      -7.047  -3.892   1.305  0.00  0.00    +0.000 C 
ATOM     45  C22 UNK     0      -7.476  -1.657   2.356  0.00  0.00    +0.000 C 
ENDBRANCH  42  43
ENDBRANCH  35  42
ENDBRANCH  32  35
ENDBRANCH  30  31
BRANCH  30  46
ATOM     46  C24 UNK     0      -3.937   1.889   2.327  0.00  0.00    +0.000 C 
BRANCH  46  47
ATOM     47  C29 UNK     0      -3.162   2.568   3.429  0.00  0.00    +0.000 A 
ATOM     48  C37 UNK     0      -2.805   3.924   3.318  0.00  0.00    +0.000 A 
ATOM     49  C45 UNK     0      -2.060   4.541   4.328  0.00  0.00    +0.000 A 
ATOM     50  C47 UNK     0      -1.657   3.810   5.450  0.00  0.00    +0.000 A 
ATOM     51  C46 UNK     0      -2.002   2.460   5.564  0.00  0.00    +0.000 A 
ATOM     52  C38 UNK     0      -2.753   1.840   4.560  0.00  0.00    +0.000 A 
ENDBRANCH  46  47
ENDBRANCH  30  46
ENDBRANCH  27  30
ENDBRANCH   1  26
BRANCH   1  53
ATOM     53  C26 UNK     0      -0.265   2.815  -1.815  0.00  0.00    +0.000 C 
BRANCH  53  54
ATOM     54  C28 UNK     0      -0.732   1.759  -2.853  0.00  0.00    +0.000 C 
ATOM     55  C33 UNK     0       0.403   0.813  -3.271  0.00  0.00    +0.000 C 
ATOM     56  C34 UNK     0      -1.295   2.471  -4.092  0.00  0.00    +0.000 C 
ENDBRANCH  53  54
ENDBRANCH   1  53
TORSDOF 20
