REMARK  Name = C:\Users\Maximilian\Desktop\Conformers\converted_pdb\conformers_pdb\TAK_242_conf_5.pdb
REMARK  25 active torsions:
REMARK  status: ('A' for Active; 'I' for Inactive)
REMARK    1  A    between atoms: C25_1  and  N10_2
REMARK    2  A    between atoms: C25_1  and  C27_26
REMARK    3  A    between atoms: C25_1  and  C26_53
REMARK    4  A    between atoms: C31_4  and  C30_6
REMARK    5  A    between atoms: C30_6  and  C32_7
REMARK    6  A    between atoms: C30_6  and  N11_15
REMARK    7  A    between atoms: C32_7  and  C35_8
REMARK    8  A    between atoms: C35_8  and  C44_9
REMARK    9  A    between atoms: C41_16  and  C36_19
REMARK   10  A    between atoms: C36_19  and  N12_20
REMARK   11  A    between atoms: N9_27  and  C21_30
REMARK   12  A    between atoms: C21_30  and  C24_31
REMARK   13  A    between atoms: C21_30  and  C20_38
REMARK   14  A    between atoms: C24_31  and  C29_32
REMARK   15  A    between atoms: N8_39  and  C15_42
REMARK   16  A    between atoms: C15_42  and  C18_43
REMARK   17  A    between atoms: C15_42  and  C16_47
REMARK   18  A    between atoms: C18_43  and  C19_44
REMARK   19  A    between atoms: C19_44  and  C23_45
REMARK   20  A    between atoms: C19_44  and  C22_46
REMARK   21  A    between atoms: C16_47  and  C13_49
REMARK   22  A    between atoms: C13_49  and  C17_52
REMARK   23  A    between atoms: C26_53  and  C28_54
REMARK   24  A    between atoms: C28_54  and  C33_55
REMARK   25  A    between atoms: C28_54  and  C34_56
REMARK                            x       y       z     vdW  Elec       q    Type
REMARK                         _______ _______ _______ _____ _____    ______ ____
ROOT
ATOM      1  C25 UNK     0       0.321  -0.800  -1.975  0.00  0.00    +0.000 C 
ENDROOT
BRANCH   1   2
ATOM      2  N10 UNK     0       1.717  -0.884  -1.535  0.00  0.00    +0.000 N 
ATOM      3  H77 UNK     0       1.930  -1.466  -0.694  0.00  0.00    +0.000 HD
ATOM      4  C31 UNK     0       2.745  -0.033  -2.067  0.00  0.00    +0.000 C 
ATOM      5  O6  UNK     0       2.516   0.665  -3.090  0.00  0.00    +0.000 OA
BRANCH   4   6
ATOM      6  C30 UNK     0       4.127   0.013  -1.456  0.00  0.00    +0.000 C 
BRANCH   6   7
ATOM      7  N11 UNK     0       4.069   0.227  -0.004  0.00  0.00    +0.000 N 
ATOM      8  C41 UNK     0       5.254   0.452   0.780  0.00  0.00    +0.000 C 
ATOM      9  O7  UNK     0       6.367   0.627   0.209  0.00  0.00    +0.000 OA
ATOM     10  H87 UNK     0       3.148   0.267   0.473  0.00  0.00    +0.000 HD
BRANCH   8  11
ATOM     11  C36 UNK     0       5.182   0.430   2.288  0.00  0.00    +0.000 C 
BRANCH  11  12
ATOM     12  N12 UNK     0       5.660   1.668   2.941  0.00  0.00    +0.000 NA
ATOM     13  C39 UNK     0       7.130   1.743   3.049  0.00  0.00    +0.000 C 
ATOM     14  C42 UNK     0       7.568   3.110   3.605  0.00  0.00    +0.000 C 
ATOM     15  O5  UNK     0       6.481   3.784   4.208  0.00  0.00    +0.000 OA
ATOM     16  C43 UNK     0       5.514   4.120   3.226  0.00  0.00    +0.000 C 
ATOM     17  C40 UNK     0       5.086   2.903   2.379  0.00  0.00    +0.000 C 
ENDBRANCH  11  12
ENDBRANCH   8  11
ENDBRANCH   6   7
BRANCH   6  18
ATOM     18  C32 UNK     0       4.956  -1.239  -1.835  0.00  0.00    +0.000 C 
BRANCH  18  19
ATOM     19  C35 UNK     0       4.612  -2.503  -1.028  0.00  0.00    +0.000 C 
BRANCH  19  20
ATOM     20  C44 UNK     0       5.674  -3.552  -1.220  0.00  0.00    +0.000 A 
ATOM     21  C49 UNK     0       6.793  -3.585  -0.374  0.00  0.00    +0.000 A 
ATOM     22  C51 UNK     0       7.813  -4.514  -0.591  0.00  0.00    +0.000 A 
ATOM     23  C52 UNK     0       7.726  -5.416  -1.655  0.00  0.00    +0.000 A 
ATOM     24  C50 UNK     0       6.618  -5.385  -2.504  0.00  0.00    +0.000 A 
ATOM     25  C48 UNK     0       5.599  -4.453  -2.295  0.00  0.00    +0.000 A 
ENDBRANCH  19  20
ENDBRANCH  18  19
ENDBRANCH   6  18
ENDBRANCH   4   6
ENDBRANCH   1   2
BRANCH   1  26
ATOM     26  C27 UNK     0      -0.473  -0.050  -0.939  0.00  0.00    +0.000 C 
ATOM     27  N9  UNK     0      -1.136   1.176  -1.280  0.00  0.00    +0.000 N 
ATOM     28  H73 UNK     0      -0.977   1.588  -2.231  0.00  0.00    +0.000 HD
ATOM     29  O4  UNK     0      -0.562  -0.516   0.233  0.00  0.00    +0.000 OA
BRANCH  27  30
ATOM     30  C21 UNK     0      -2.157   1.763  -0.409  0.00  0.00    +0.000 C 
BRANCH  30  31
ATOM     31  C20 UNK     0      -3.441   0.982  -0.549  0.00  0.00    +0.000 C 
ATOM     32  N8  UNK     0      -4.093   0.454   0.616  0.00  0.00    +0.000 N 
ATOM     33  H62 UNK     0      -3.692   0.690   1.549  0.00  0.00    +0.000 HD
ATOM     34  O3  UNK     0      -3.938   0.805  -1.693  0.00  0.00    +0.000 OA
BRANCH  32  35
ATOM     35  C15 UNK     0      -5.253  -0.446   0.528  0.00  0.00    +0.000 C 
BRANCH  35  36
ATOM     36  C16 UNK     0      -5.380  -1.319   1.765  0.00  0.00    +0.000 C 
ATOM     37  O2  UNK     0      -5.037  -0.897   2.862  0.00  0.00    +0.000 OA
BRANCH  36  38
ATOM     38  C13 UNK     0      -5.897  -2.733   1.646  0.00  0.00    +0.000 C 
ATOM     39  O1  UNK     0      -5.657  -3.497   2.805  0.00  0.00    +0.000 OA
ATOM     40  C14 UNK     0      -4.901  -3.828   1.661  0.00  0.00    +0.000 C 
ATOM     41  C17 UNK     0      -7.279  -3.008   1.060  0.00  0.00    +0.000 C 
ENDBRANCH  36  38
ENDBRANCH  35  36
BRANCH  35  42
ATOM     42  C18 UNK     0      -6.548   0.338   0.202  0.00  0.00    +0.000 C 
BRANCH  42  43
ATOM     43  C19 UNK     0      -6.834   1.603   1.055  0.00  0.00    +0.000 C 
ATOM     44  C23 UNK     0      -7.412   1.266   2.437  0.00  0.00    +0.000 C 
ATOM     45  C22 UNK     0      -7.818   2.511   0.305  0.00  0.00    +0.000 C 
ENDBRANCH  42  43
ENDBRANCH  35  42
ENDBRANCH  32  35
ENDBRANCH  30  31
BRANCH  30  46
ATOM     46  C24 UNK     0      -2.362   3.248  -0.765  0.00  0.00    +0.000 C 
BRANCH  46  47
ATOM     47  C29 UNK     0      -3.350   3.929   0.152  0.00  0.00    +0.000 A 
ATOM     48  C37 UNK     0      -4.578   4.396  -0.351  0.00  0.00    +0.000 A 
ATOM     49  C45 UNK     0      -5.486   5.043   0.494  0.00  0.00    +0.000 A 
ATOM     50  C47 UNK     0      -5.187   5.207   1.849  0.00  0.00    +0.000 A 
ATOM     51  C46 UNK     0      -3.970   4.741   2.358  0.00  0.00    +0.000 A 
ATOM     52  C38 UNK     0      -3.048   4.114   1.513  0.00  0.00    +0.000 A 
ENDBRANCH  46  47
ENDBRANCH  30  46
ENDBRANCH  27  30
ENDBRANCH   1  26
BRANCH   1  53
ATOM     53  C26 UNK     0      -0.282  -2.210  -2.180  0.00  0.00    +0.000 C 
BRANCH  53  54
ATOM     54  C28 UNK     0       0.112  -2.929  -3.495  0.00  0.00    +0.000 C 
ATOM     55  C33 UNK     0       1.606  -3.265  -3.578  0.00  0.00    +0.000 C 
ATOM     56  C34 UNK     0      -0.353  -2.174  -4.748  0.00  0.00    +0.000 C 
ENDBRANCH  53  54
ENDBRANCH   1  53
TORSDOF 20
