REMARK  Name = C:\Users\Maximilian\Desktop\Conformers\converted_pdb\conformers_pdb\TAK_242_conf_75.pdb
REMARK  25 active torsions:
REMARK  status: ('A' for Active; 'I' for Inactive)
REMARK    1  A    between atoms: C25_1  and  N10_2
REMARK    2  A    between atoms: C25_1  and  C27_26
REMARK    3  A    between atoms: C25_1  and  C26_53
REMARK    4  A    between atoms: C31_4  and  C30_6
REMARK    5  A    between atoms: C30_6  and  C32_7
REMARK    6  A    between atoms: C30_6  and  N11_15
REMARK    7  A    between atoms: C32_7  and  C35_8
REMARK    8  A    between atoms: C35_8  and  C44_9
REMARK    9  A    between atoms: C41_16  and  C36_19
REMARK   10  A    between atoms: C36_19  and  N12_20
REMARK   11  A    between atoms: N9_27  and  C21_30
REMARK   12  A    between atoms: C21_30  and  C24_31
REMARK   13  A    between atoms: C21_30  and  C20_38
REMARK   14  A    between atoms: C24_31  and  C29_32
REMARK   15  A    between atoms: N8_39  and  C15_42
REMARK   16  A    between atoms: C15_42  and  C18_43
REMARK   17  A    between atoms: C15_42  and  C16_47
REMARK   18  A    between atoms: C18_43  and  C19_44
REMARK   19  A    between atoms: C19_44  and  C23_45
REMARK   20  A    between atoms: C19_44  and  C22_46
REMARK   21  A    between atoms: C16_47  and  C13_49
REMARK   22  A    between atoms: C13_49  and  C17_52
REMARK   23  A    between atoms: C26_53  and  C28_54
REMARK   24  A    between atoms: C28_54  and  C33_55
REMARK   25  A    between atoms: C28_54  and  C34_56
REMARK                            x       y       z     vdW  Elec       q    Type
REMARK                         _______ _______ _______ _____ _____    ______ ____
ROOT
ATOM      1  C25 UNK     0       0.193  -0.893   1.620  0.00  0.00    +0.000 C 
ENDROOT
BRANCH   1   2
ATOM      2  N10 UNK     0       1.581  -0.429   1.579  0.00  0.00    +0.000 N 
ATOM      3  H77 UNK     0       1.873   0.365   2.192  0.00  0.00    +0.000 HD
ATOM      4  C31 UNK     0       2.563  -1.027   0.718  0.00  0.00    +0.000 C 
ATOM      5  O6  UNK     0       2.226  -1.953  -0.070  0.00  0.00    +0.000 OA
BRANCH   4   6
ATOM      6  C30 UNK     0       4.002  -0.571   0.744  0.00  0.00    +0.000 C 
BRANCH   6   7
ATOM      7  N11 UNK     0       4.087   0.864   0.466  0.00  0.00    +0.000 N 
ATOM      8  C41 UNK     0       5.290   1.479  -0.026  0.00  0.00    +0.000 C 
ATOM      9  O7  UNK     0       6.326   0.784  -0.227  0.00  0.00    +0.000 OA
ATOM     10  H87 UNK     0       3.292   1.492   0.746  0.00  0.00    +0.000 HD
BRANCH   8  11
ATOM     11  C36 UNK     0       5.339   2.967  -0.208  0.00  0.00    +0.000 C 
BRANCH  11  12
ATOM     12  N12 UNK     0       6.263   3.357  -1.296  0.00  0.00    +0.000 NA
ATOM     13  C39 UNK     0       5.684   3.059  -2.621  0.00  0.00    +0.000 C 
ATOM     14  C42 UNK     0       6.639   3.511  -3.743  0.00  0.00    +0.000 C 
ATOM     15  O5  UNK     0       7.770   4.203  -3.239  0.00  0.00    +0.000 OA
ATOM     16  C43 UNK     0       7.349   5.285  -2.436  0.00  0.00    +0.000 C 
ATOM     17  C40 UNK     0       6.572   4.797  -1.194  0.00  0.00    +0.000 C 
ENDBRANCH  11  12
ENDBRANCH   8  11
ENDBRANCH   6   7
BRANCH   6  18
ATOM     18  C32 UNK     0       4.678  -0.888   2.099  0.00  0.00    +0.000 C 
BRANCH  18  19
ATOM     19  C35 UNK     0       4.807  -2.397   2.380  0.00  0.00    +0.000 C 
BRANCH  19  20
ATOM     20  C44 UNK     0       5.766  -3.061   1.425  0.00  0.00    +0.000 A 
ATOM     21  C49 UNK     0       7.155  -2.940   1.610  0.00  0.00    +0.000 A 
ATOM     22  C51 UNK     0       8.040  -3.499   0.683  0.00  0.00    +0.000 A 
ATOM     23  C52 UNK     0       7.545  -4.200  -0.422  0.00  0.00    +0.000 A 
ATOM     24  C50 UNK     0       6.165  -4.340  -0.606  0.00  0.00    +0.000 A 
ATOM     25  C48 UNK     0       5.277  -3.773   0.314  0.00  0.00    +0.000 A 
ENDBRANCH  19  20
ENDBRANCH  18  19
ENDBRANCH   6  18
ENDBRANCH   4   6
ENDBRANCH   1   2
BRANCH   1  26
ATOM     26  C27 UNK     0      -0.546  -0.408   0.395  0.00  0.00    +0.000 C 
ATOM     27  N9  UNK     0      -1.533  -1.244  -0.221  0.00  0.00    +0.000 N 
ATOM     28  H73 UNK     0      -1.684  -2.192   0.196  0.00  0.00    +0.000 HD
ATOM     29  O4  UNK     0      -0.322   0.745  -0.056  0.00  0.00    +0.000 OA
BRANCH  27  30
ATOM     30  C21 UNK     0      -2.549  -0.708  -1.136  0.00  0.00    +0.000 C 
BRANCH  30  31
ATOM     31  C20 UNK     0      -3.655  -0.031  -0.367  0.00  0.00    +0.000 C 
ATOM     32  N8  UNK     0      -4.639   0.756  -1.053  0.00  0.00    +0.000 N 
ATOM     33  H62 UNK     0      -4.629   0.763  -2.105  0.00  0.00    +0.000 HD
ATOM     34  O3  UNK     0      -3.694  -0.122   0.893  0.00  0.00    +0.000 OA
BRANCH  32  35
ATOM     35  C15 UNK     0      -5.471   1.744  -0.358  0.00  0.00    +0.000 C 
BRANCH  35  36
ATOM     36  C16 UNK     0      -4.734   3.062  -0.267  0.00  0.00    +0.000 C 
ATOM     37  O2  UNK     0      -4.449   3.510   0.832  0.00  0.00    +0.000 OA
BRANCH  36  38
ATOM     38  C13 UNK     0      -4.270   3.796  -1.500  0.00  0.00    +0.000 C 
ATOM     39  O1  UNK     0      -4.212   5.190  -1.284  0.00  0.00    +0.000 OA
ATOM     40  C14 UNK     0      -5.215   4.730  -2.160  0.00  0.00    +0.000 C 
ATOM     41  C17 UNK     0      -3.063   3.292  -2.298  0.00  0.00    +0.000 C 
ENDBRANCH  36  38
ENDBRANCH  35  36
BRANCH  35  42
ATOM     42  C18 UNK     0      -6.840   1.908  -1.051  0.00  0.00    +0.000 C 
BRANCH  42  43
ATOM     43  C19 UNK     0      -7.642   0.591  -1.185  0.00  0.00    +0.000 C 
ATOM     44  C23 UNK     0      -9.006   0.868  -1.836  0.00  0.00    +0.000 C 
ATOM     45  C22 UNK     0      -7.848  -0.120   0.165  0.00  0.00    +0.000 C 
ENDBRANCH  42  43
ENDBRANCH  35  42
ENDBRANCH  32  35
ENDBRANCH  30  31
BRANCH  30  46
ATOM     46  C24 UNK     0      -3.080  -1.806  -2.084  0.00  0.00    +0.000 C 
BRANCH  46  47
ATOM     47  C29 UNK     0      -3.803  -2.929  -1.381  0.00  0.00    +0.000 A 
ATOM     48  C37 UNK     0      -5.174  -2.818  -1.089  0.00  0.00    +0.000 A 
ATOM     49  C45 UNK     0      -5.849  -3.864  -0.459  0.00  0.00    +0.000 A 
ATOM     50  C47 UNK     0      -5.156  -5.022  -0.094  0.00  0.00    +0.000 A 
ATOM     51  C46 UNK     0      -3.793  -5.143  -0.379  0.00  0.00    +0.000 A 
ATOM     52  C38 UNK     0      -3.120  -4.107  -1.030  0.00  0.00    +0.000 A 
ENDBRANCH  46  47
ENDBRANCH  30  46
ENDBRANCH  27  30
ENDBRANCH   1  26
BRANCH   1  53
ATOM     53  C26 UNK     0      -0.532  -0.390   2.895  0.00  0.00    +0.000 C 
BRANCH  53  54
ATOM     54  C28 UNK     0      -0.196  -1.145   4.207  0.00  0.00    +0.000 C 
ATOM     55  C33 UNK     0       1.282  -1.036   4.612  0.00  0.00    +0.000 C 
ATOM     56  C34 UNK     0      -0.655  -2.611   4.180  0.00  0.00    +0.000 C 
ENDBRANCH  53  54
ENDBRANCH   1  53
TORSDOF 20
