REMARK  Name = C:\Users\Maximilian\Desktop\Conformers\converted_pdb\conformers_pdb\TAK_242_conf_59.pdb
REMARK  25 active torsions:
REMARK  status: ('A' for Active; 'I' for Inactive)
REMARK    1  A    between atoms: C25_1  and  N10_2
REMARK    2  A    between atoms: C25_1  and  C27_26
REMARK    3  A    between atoms: C25_1  and  C26_53
REMARK    4  A    between atoms: C31_4  and  C30_6
REMARK    5  A    between atoms: C30_6  and  C32_7
REMARK    6  A    between atoms: C30_6  and  N11_15
REMARK    7  A    between atoms: C32_7  and  C35_8
REMARK    8  A    between atoms: C35_8  and  C44_9
REMARK    9  A    between atoms: C41_16  and  C36_19
REMARK   10  A    between atoms: C36_19  and  N12_20
REMARK   11  A    between atoms: N9_27  and  C21_30
REMARK   12  A    between atoms: C21_30  and  C24_31
REMARK   13  A    between atoms: C21_30  and  C20_38
REMARK   14  A    between atoms: C24_31  and  C29_32
REMARK   15  A    between atoms: N8_39  and  C15_42
REMARK   16  A    between atoms: C15_42  and  C18_43
REMARK   17  A    between atoms: C15_42  and  C16_47
REMARK   18  A    between atoms: C18_43  and  C19_44
REMARK   19  A    between atoms: C19_44  and  C23_45
REMARK   20  A    between atoms: C19_44  and  C22_46
REMARK   21  A    between atoms: C16_47  and  C13_49
REMARK   22  A    between atoms: C13_49  and  C17_52
REMARK   23  A    between atoms: C26_53  and  C28_54
REMARK   24  A    between atoms: C28_54  and  C33_55
REMARK   25  A    between atoms: C28_54  and  C34_56
REMARK                            x       y       z     vdW  Elec       q    Type
REMARK                         _______ _______ _______ _____ _____    ______ ____
ROOT
ATOM      1  C25 UNK     0       0.991   0.649  -1.523  0.00  0.00    +0.000 C 
ENDROOT
BRANCH   1   2
ATOM      2  N10 UNK     0       2.352   0.382  -1.039  0.00  0.00    +0.000 N 
ATOM      3  H77 UNK     0       2.496  -0.249  -0.219  0.00  0.00    +0.000 HD
ATOM      4  C31 UNK     0       3.511   0.846  -1.753  0.00  0.00    +0.000 C 
ATOM      5  O6  UNK     0       3.376   1.606  -2.750  0.00  0.00    +0.000 OA
BRANCH   4   6
ATOM      6  C30 UNK     0       4.896   0.394  -1.367  0.00  0.00    +0.000 C 
BRANCH   6   7
ATOM      7  N11 UNK     0       5.164   0.701   0.042  0.00  0.00    +0.000 N 
ATOM      8  C41 UNK     0       6.480   1.039   0.511  0.00  0.00    +0.000 C 
ATOM      9  O7  UNK     0       7.390   1.346  -0.306  0.00  0.00    +0.000 OA
ATOM     10  H87 UNK     0       4.439   0.468   0.757  0.00  0.00    +0.000 HD
BRANCH   8  11
ATOM     11  C36 UNK     0       6.793   1.018   1.979  0.00  0.00    +0.000 C 
BRANCH  11  12
ATOM     12  N12 UNK     0       7.162   2.369   2.453  0.00  0.00    +0.000 NA
ATOM     13  C39 UNK     0       5.978   3.260   2.520  0.00  0.00    +0.000 C 
ATOM     14  C42 UNK     0       6.262   4.507   3.381  0.00  0.00    +0.000 C 
ATOM     15  O5  UNK     0       7.651   4.742   3.463  0.00  0.00    +0.000 OA
ATOM     16  C43 UNK     0       8.273   3.707   4.208  0.00  0.00    +0.000 C 
ATOM     17  C40 UNK     0       7.829   2.295   3.764  0.00  0.00    +0.000 C 
ENDBRANCH  11  12
ENDBRANCH   8  11
ENDBRANCH   6   7
BRANCH   6  18
ATOM     18  C32 UNK     0       5.085  -1.114  -1.616  0.00  0.00    +0.000 C 
BRANCH  18  19
ATOM     19  C35 UNK     0       5.051  -1.467  -3.110  0.00  0.00    +0.000 C 
BRANCH  19  20
ATOM     20  C44 UNK     0       5.335  -2.929  -3.318  0.00  0.00    +0.000 A 
ATOM     21  C49 UNK     0       6.653  -3.411  -3.252  0.00  0.00    +0.000 A 
ATOM     22  C51 UNK     0       6.909  -4.773  -3.431  0.00  0.00    +0.000 A 
ATOM     23  C52 UNK     0       5.855  -5.666  -3.648  0.00  0.00    +0.000 A 
ATOM     24  C50 UNK     0       4.541  -5.193  -3.707  0.00  0.00    +0.000 A 
ATOM     25  C48 UNK     0       4.279  -3.829  -3.550  0.00  0.00    +0.000 A 
ENDBRANCH  19  20
ENDBRANCH  18  19
ENDBRANCH   6  18
ENDBRANCH   4   6
ENDBRANCH   1   2
BRANCH   1  26
ATOM     26  C27 UNK     0      -0.009   0.750  -0.396  0.00  0.00    +0.000 C 
ATOM     27  N9  UNK     0      -1.295   1.341  -0.648  0.00  0.00    +0.000 N 
ATOM     28  H73 UNK     0      -1.438   1.848  -1.551  0.00  0.00    +0.000 HD
ATOM     29  O4  UNK     0       0.265   0.288   0.743  0.00  0.00    +0.000 OA
BRANCH  27  30
ATOM     30  C21 UNK     0      -2.359   1.377   0.359  0.00  0.00    +0.000 C 
BRANCH  30  31
ATOM     31  C20 UNK     0      -3.693   1.083  -0.277  0.00  0.00    +0.000 C 
ATOM     32  N8  UNK     0      -4.675   0.335   0.452  0.00  0.00    +0.000 N 
ATOM     33  H62 UNK     0      -4.422   0.021   1.417  0.00  0.00    +0.000 HD
ATOM     34  O3  UNK     0      -3.975   1.570  -1.405  0.00  0.00    +0.000 OA
BRANCH  32  35
ATOM     35  C15 UNK     0      -6.047   0.149  -0.036  0.00  0.00    +0.000 C 
BRANCH  35  36
ATOM     36  C16 UNK     0      -6.097  -0.936  -1.089  0.00  0.00    +0.000 C 
ATOM     37  O2  UNK     0      -5.536  -2.004  -0.901  0.00  0.00    +0.000 OA
BRANCH  36  38
ATOM     38  C13 UNK     0      -6.903  -0.738  -2.342  0.00  0.00    +0.000 C 
ATOM     39  O1  UNK     0      -6.323  -1.357  -3.467  0.00  0.00    +0.000 OA
ATOM     40  C14 UNK     0      -6.300   0.055  -3.439  0.00  0.00    +0.000 C 
ATOM     41  C17 UNK     0      -8.420  -0.910  -2.299  0.00  0.00    +0.000 C 
ENDBRANCH  36  38
ENDBRANCH  35  36
BRANCH  35  42
ATOM     42  C18 UNK     0      -7.018  -0.138   1.135  0.00  0.00    +0.000 C 
BRANCH  42  43
ATOM     43  C19 UNK     0      -6.707  -1.442   1.934  0.00  0.00    +0.000 C 
ATOM     44  C23 UNK     0      -7.754  -2.528   1.661  0.00  0.00    +0.000 C 
ATOM     45  C22 UNK     0      -6.622  -1.158   3.439  0.00  0.00    +0.000 C 
ENDBRANCH  42  43
ENDBRANCH  35  42
ENDBRANCH  32  35
ENDBRANCH  30  31
BRANCH  30  46
ATOM     46  C24 UNK     0      -2.378   2.749   1.054  0.00  0.00    +0.000 C 
BRANCH  46  47
ATOM     47  C29 UNK     0      -3.388   2.790   2.176  0.00  0.00    +0.000 A 
ATOM     48  C37 UNK     0      -3.090   2.197   3.415  0.00  0.00    +0.000 A 
ATOM     49  C45 UNK     0      -4.058   2.150   4.423  0.00  0.00    +0.000 A 
ATOM     50  C47 UNK     0      -5.331   2.683   4.202  0.00  0.00    +0.000 A 
ATOM     51  C46 UNK     0      -5.637   3.270   2.973  0.00  0.00    +0.000 A 
ATOM     52  C38 UNK     0      -4.672   3.321   1.961  0.00  0.00    +0.000 A 
ENDBRANCH  46  47
ENDBRANCH  30  46
ENDBRANCH  27  30
ENDBRANCH   1  26
BRANCH   1  53
ATOM     53  C26 UNK     0       0.571  -0.386  -2.594  0.00  0.00    +0.000 C 
BRANCH  53  54
ATOM     54  C28 UNK     0       0.027  -1.745  -2.079  0.00  0.00    +0.000 C 
ATOM     55  C33 UNK     0       1.068  -2.527  -1.268  0.00  0.00    +0.000 C 
ATOM     56  C34 UNK     0      -0.438  -2.598  -3.267  0.00  0.00    +0.000 C 
ENDBRANCH  53  54
ENDBRANCH   1  53
TORSDOF 20
