REMARK  Name = C:\Users\Maximilian\Desktop\Conformers\converted_pdb\conformers_pdb\TAK_242_conf_38.pdb
REMARK  25 active torsions:
REMARK  status: ('A' for Active; 'I' for Inactive)
REMARK    1  A    between atoms: C25_1  and  N10_2
REMARK    2  A    between atoms: C25_1  and  C27_26
REMARK    3  A    between atoms: C25_1  and  C26_53
REMARK    4  A    between atoms: C31_4  and  C30_6
REMARK    5  A    between atoms: C30_6  and  C32_7
REMARK    6  A    between atoms: C30_6  and  N11_15
REMARK    7  A    between atoms: C32_7  and  C35_8
REMARK    8  A    between atoms: C35_8  and  C44_9
REMARK    9  A    between atoms: C41_16  and  C36_19
REMARK   10  A    between atoms: C36_19  and  N12_20
REMARK   11  A    between atoms: N9_27  and  C21_30
REMARK   12  A    between atoms: C21_30  and  C24_31
REMARK   13  A    between atoms: C21_30  and  C20_38
REMARK   14  A    between atoms: C24_31  and  C29_32
REMARK   15  A    between atoms: N8_39  and  C15_42
REMARK   16  A    between atoms: C15_42  and  C18_43
REMARK   17  A    between atoms: C15_42  and  C16_47
REMARK   18  A    between atoms: C18_43  and  C19_44
REMARK   19  A    between atoms: C19_44  and  C23_45
REMARK   20  A    between atoms: C19_44  and  C22_46
REMARK   21  A    between atoms: C16_47  and  C13_49
REMARK   22  A    between atoms: C13_49  and  C17_52
REMARK   23  A    between atoms: C26_53  and  C28_54
REMARK   24  A    between atoms: C28_54  and  C33_55
REMARK   25  A    between atoms: C28_54  and  C34_56
REMARK                            x       y       z     vdW  Elec       q    Type
REMARK                         _______ _______ _______ _____ _____    ______ ____
ROOT
ATOM      1  C25 UNK     0       0.531  -1.300   0.488  0.00  0.00    +0.000 C 
ENDROOT
BRANCH   1   2
ATOM      2  N10 UNK     0       1.877  -1.063  -0.051  0.00  0.00    +0.000 N 
ATOM      3  H77 UNK     0       2.200  -0.068  -0.108  0.00  0.00    +0.000 HD
ATOM      4  C31 UNK     0       2.661  -2.091  -0.691  0.00  0.00    +0.000 C 
ATOM      5  O6  UNK     0       2.232  -3.277  -0.725  0.00  0.00    +0.000 OA
BRANCH   4   6
ATOM      6  C30 UNK     0       3.941  -1.743  -1.428  0.00  0.00    +0.000 C 
BRANCH   6   7
ATOM      7  N11 UNK     0       4.562  -0.532  -0.880  0.00  0.00    +0.000 N 
ATOM      8  C41 UNK     0       5.129   0.473  -1.731  0.00  0.00    +0.000 C 
ATOM      9  O7  UNK     0       5.623   0.151  -2.845  0.00  0.00    +0.000 OA
ATOM     10  H87 UNK     0       4.506  -0.347   0.147  0.00  0.00    +0.000 HD
BRANCH   8  11
ATOM     11  C36 UNK     0       5.033   1.928  -1.364  0.00  0.00    +0.000 C 
BRANCH  11  12
ATOM     12  N12 UNK     0       5.270   2.142   0.081  0.00  0.00    +0.000 NA
ATOM     13  C39 UNK     0       6.691   1.972   0.460  0.00  0.00    +0.000 C 
ATOM     14  C42 UNK     0       7.542   3.203   0.099  0.00  0.00    +0.000 C 
ATOM     15  O5  UNK     0       6.993   4.384   0.650  0.00  0.00    +0.000 OA
ATOM     16  C43 UNK     0       5.698   4.595   0.133  0.00  0.00    +0.000 C 
ATOM     17  C40 UNK     0       4.759   3.449   0.541  0.00  0.00    +0.000 C 
ENDBRANCH  11  12
ENDBRANCH   8  11
ENDBRANCH   6   7
BRANCH   6  18
ATOM     18  C32 UNK     0       4.962  -2.904  -1.473  0.00  0.00    +0.000 C 
BRANCH  18  19
ATOM     19  C35 UNK     0       5.462  -3.394  -0.099  0.00  0.00    +0.000 C 
BRANCH  19  20
ATOM     20  C44 UNK     0       6.475  -2.470   0.537  0.00  0.00    +0.000 A 
ATOM     21  C49 UNK     0       7.722  -2.241  -0.073  0.00  0.00    +0.000 A 
ATOM     22  C51 UNK     0       8.670  -1.417   0.546  0.00  0.00    +0.000 A 
ATOM     23  C52 UNK     0       8.385  -0.818   1.774  0.00  0.00    +0.000 A 
ATOM     24  C50 UNK     0       7.152  -1.046   2.390  0.00  0.00    +0.000 A 
ATOM     25  C48 UNK     0       6.204  -1.874   1.782  0.00  0.00    +0.000 A 
ENDBRANCH  19  20
ENDBRANCH  18  19
ENDBRANCH   6  18
ENDBRANCH   4   6
ENDBRANCH   1   2
BRANCH   1  26
ATOM     26  C27 UNK     0      -0.485  -0.765  -0.486  0.00  0.00    +0.000 C 
ATOM     27  N9  UNK     0      -1.725  -1.459  -0.706  0.00  0.00    +0.000 N 
ATOM     28  H73 UNK     0      -1.906  -2.329  -0.156  0.00  0.00    +0.000 HD
ATOM     29  O4  UNK     0      -0.262   0.334  -1.070  0.00  0.00    +0.000 OA
BRANCH  27  30
ATOM     30  C21 UNK     0      -2.842  -0.840  -1.429  0.00  0.00    +0.000 C 
BRANCH  30  31
ATOM     31  C20 UNK     0      -3.798  -0.199  -0.458  0.00  0.00    +0.000 C 
ATOM     32  N8  UNK     0      -4.489   1.005  -0.829  0.00  0.00    +0.000 N 
ATOM     33  H62 UNK     0      -4.405   1.340  -1.819  0.00  0.00    +0.000 HD
ATOM     34  O3  UNK     0      -4.006  -0.732   0.668  0.00  0.00    +0.000 OA
BRANCH  32  35
ATOM     35  C15 UNK     0      -5.418   1.685   0.078  0.00  0.00    +0.000 C 
BRANCH  35  36
ATOM     36  C16 UNK     0      -5.322   3.195  -0.059  0.00  0.00    +0.000 C 
ATOM     37  O2  UNK     0      -4.641   3.685  -0.950  0.00  0.00    +0.000 OA
BRANCH  36  38
ATOM     38  C13 UNK     0      -6.007   4.107   0.935  0.00  0.00    +0.000 C 
ATOM     39  O1  UNK     0      -7.305   4.482   0.536  0.00  0.00    +0.000 OA
ATOM     40  C14 UNK     0      -6.322   5.496   0.507  0.00  0.00    +0.000 C 
ATOM     41  C17 UNK     0      -5.911   3.820   2.433  0.00  0.00    +0.000 C 
ENDBRANCH  36  38
ENDBRANCH  35  36
BRANCH  35  42
ATOM     42  C18 UNK     0      -6.857   1.138  -0.092  0.00  0.00    +0.000 C 
BRANCH  42  43
ATOM     43  C19 UNK     0      -7.375   1.012  -1.551  0.00  0.00    +0.000 C 
ATOM     44  C23 UNK     0      -7.594   2.379  -2.212  0.00  0.00    +0.000 C 
ATOM     45  C22 UNK     0      -8.692   0.219  -1.561  0.00  0.00    +0.000 C 
ENDBRANCH  42  43
ENDBRANCH  35  42
ENDBRANCH  32  35
ENDBRANCH  30  31
BRANCH  30  46
ATOM     46  C24 UNK     0      -3.540  -1.851  -2.357  0.00  0.00    +0.000 C 
BRANCH  46  47
ATOM     47  C29 UNK     0      -4.187  -3.004  -1.626  0.00  0.00    +0.000 A 
ATOM     48  C37 UNK     0      -5.503  -2.892  -1.150  0.00  0.00    +0.000 A 
ATOM     49  C45 UNK     0      -6.105  -3.959  -0.479  0.00  0.00    +0.000 A 
ATOM     50  C47 UNK     0      -5.400  -5.151  -0.285  0.00  0.00    +0.000 A 
ATOM     51  C46 UNK     0      -4.088  -5.270  -0.750  0.00  0.00    +0.000 A 
ATOM     52  C38 UNK     0      -3.483  -4.203  -1.423  0.00  0.00    +0.000 A 
ENDBRANCH  46  47
ENDBRANCH  30  46
ENDBRANCH  27  30
ENDBRANCH   1  26
BRANCH   1  53
ATOM     53  C26 UNK     0       0.360  -0.593   1.852  0.00  0.00    +0.000 C 
BRANCH  53  54
ATOM     54  C28 UNK     0       0.984  -1.358   3.045  0.00  0.00    +0.000 C 
ATOM     55  C33 UNK     0       0.661  -0.624   4.354  0.00  0.00    +0.000 C 
ATOM     56  C34 UNK     0       2.506  -1.532   2.903  0.00  0.00    +0.000 C 
ENDBRANCH  53  54
ENDBRANCH   1  53
TORSDOF 20
