REMARK  Name = C:\Users\Maximilian\Desktop\Conformers\converted_pdb\conformers_pdb\TAK_242_conf_84.pdb
REMARK  25 active torsions:
REMARK  status: ('A' for Active; 'I' for Inactive)
REMARK    1  A    between atoms: C25_1  and  N10_2
REMARK    2  A    between atoms: C25_1  and  C27_26
REMARK    3  A    between atoms: C25_1  and  C26_53
REMARK    4  A    between atoms: C31_4  and  C30_6
REMARK    5  A    between atoms: C30_6  and  C32_7
REMARK    6  A    between atoms: C30_6  and  N11_15
REMARK    7  A    between atoms: C32_7  and  C35_8
REMARK    8  A    between atoms: C35_8  and  C44_9
REMARK    9  A    between atoms: C41_16  and  C36_19
REMARK   10  A    between atoms: C36_19  and  N12_20
REMARK   11  A    between atoms: N9_27  and  C21_30
REMARK   12  A    between atoms: C21_30  and  C24_31
REMARK   13  A    between atoms: C21_30  and  C20_38
REMARK   14  A    between atoms: C24_31  and  C29_32
REMARK   15  A    between atoms: N8_39  and  C15_42
REMARK   16  A    between atoms: C15_42  and  C18_43
REMARK   17  A    between atoms: C15_42  and  C16_47
REMARK   18  A    between atoms: C18_43  and  C19_44
REMARK   19  A    between atoms: C19_44  and  C23_45
REMARK   20  A    between atoms: C19_44  and  C22_46
REMARK   21  A    between atoms: C16_47  and  C13_49
REMARK   22  A    between atoms: C13_49  and  C17_52
REMARK   23  A    between atoms: C26_53  and  C28_54
REMARK   24  A    between atoms: C28_54  and  C33_55
REMARK   25  A    between atoms: C28_54  and  C34_56
REMARK                            x       y       z     vdW  Elec       q    Type
REMARK                         _______ _______ _______ _____ _____    ______ ____
ROOT
ATOM      1  C25 UNK     0      -0.069   1.154  -0.442  0.00  0.00    +0.000 C 
ENDROOT
BRANCH   1   2
ATOM      2  N10 UNK     0       1.362   0.855  -0.337  0.00  0.00    +0.000 N 
ATOM      3  H77 UNK     0       1.833   0.408  -1.158  0.00  0.00    +0.000 HD
ATOM      4  C31 UNK     0       2.055   0.864   0.918  0.00  0.00    +0.000 C 
ATOM      5  O6  UNK     0       1.533   1.415   1.926  0.00  0.00    +0.000 OA
BRANCH   4   6
ATOM      6  C30 UNK     0       3.440   0.273   1.014  0.00  0.00    +0.000 C 
BRANCH   6   7
ATOM      7  N11 UNK     0       4.423   1.298   0.656  0.00  0.00    +0.000 N 
ATOM      8  C41 UNK     0       4.820   1.568  -0.697  0.00  0.00    +0.000 C 
ATOM      9  O7  UNK     0       4.366   0.876  -1.647  0.00  0.00    +0.000 OA
ATOM     10  H87 UNK     0       4.741   1.960   1.397  0.00  0.00    +0.000 HD
BRANCH   8  11
ATOM     11  C36 UNK     0       5.814   2.664  -0.984  0.00  0.00    +0.000 C 
BRANCH  11  12
ATOM     12  N12 UNK     0       7.187   2.180  -1.241  0.00  0.00    +0.000 NA
ATOM     13  C39 UNK     0       7.689   1.223  -0.236  0.00  0.00    +0.000 C 
ATOM     14  C42 UNK     0       9.129   0.793  -0.578  0.00  0.00    +0.000 C 
ATOM     15  O5  UNK     0       9.639   1.530  -1.665  0.00  0.00    +0.000 OA
ATOM     16  C43 UNK     0       8.858   1.277  -2.820  0.00  0.00    +0.000 C 
ATOM     17  C40 UNK     0       7.376   1.651  -2.605  0.00  0.00    +0.000 C 
ENDBRANCH  11  12
ENDBRANCH   8  11
ENDBRANCH   6   7
BRANCH   6  18
ATOM     18  C32 UNK     0       3.768  -0.280   2.420  0.00  0.00    +0.000 C 
BRANCH  18  19
ATOM     19  C35 UNK     0       2.795  -1.360   2.917  0.00  0.00    +0.000 C 
BRANCH  19  20
ATOM     20  C44 UNK     0       2.798  -2.593   2.048  0.00  0.00    +0.000 A 
ATOM     21  C49 UNK     0       1.736  -2.832   1.162  0.00  0.00    +0.000 A 
ATOM     22  C51 UNK     0       1.738  -3.966   0.346  0.00  0.00    +0.000 A 
ATOM     23  C52 UNK     0       2.795  -4.880   0.413  0.00  0.00    +0.000 A 
ATOM     24  C50 UNK     0       3.860  -4.648   1.289  0.00  0.00    +0.000 A 
ATOM     25  C48 UNK     0       3.865  -3.511   2.105  0.00  0.00    +0.000 A 
ENDBRANCH  19  20
ENDBRANCH  18  19
ENDBRANCH   6  18
ENDBRANCH   4   6
ENDBRANCH   1   2
BRANCH   1  26
ATOM     26  C27 UNK     0      -0.841  -0.129  -0.293  0.00  0.00    +0.000 C 
ATOM     27  N9  UNK     0      -1.847  -0.259   0.722  0.00  0.00    +0.000 N 
ATOM     28  H73 UNK     0      -2.163   0.600   1.228  0.00  0.00    +0.000 HD
ATOM     29  O4  UNK     0      -0.589  -1.096  -1.060  0.00  0.00    +0.000 OA
BRANCH  27  30
ATOM     30  C21 UNK     0      -2.441  -1.555   1.065  0.00  0.00    +0.000 C 
BRANCH  30  31
ATOM     31  C20 UNK     0      -3.541  -1.912   0.096  0.00  0.00    +0.000 C 
ATOM     32  N8  UNK     0      -4.430  -0.911  -0.420  0.00  0.00    +0.000 N 
ATOM     33  H62 UNK     0      -4.146   0.090  -0.363  0.00  0.00    +0.000 HD
ATOM     34  O3  UNK     0      -3.717  -3.124  -0.202  0.00  0.00    +0.000 OA
BRANCH  32  35
ATOM     35  C15 UNK     0      -5.771  -1.247  -0.913  0.00  0.00    +0.000 C 
BRANCH  35  36
ATOM     36  C16 UNK     0      -6.750  -0.087  -0.750  0.00  0.00    +0.000 C 
ATOM     37  O2  UNK     0      -7.767  -0.057  -1.428  0.00  0.00    +0.000 OA
BRANCH  36  38
ATOM     38  C13 UNK     0      -6.582   0.978   0.309  0.00  0.00    +0.000 C 
ATOM     39  O1  UNK     0      -5.956   0.543   1.496  0.00  0.00    +0.000 OA
ATOM     40  C14 UNK     0      -7.348   0.792   1.562  0.00  0.00    +0.000 C 
ATOM     41  C17 UNK     0      -6.227   2.413  -0.085  0.00  0.00    +0.000 C 
ENDBRANCH  36  38
ENDBRANCH  35  36
BRANCH  35  42
ATOM     42  C18 UNK     0      -5.725  -1.817  -2.361  0.00  0.00    +0.000 C 
BRANCH  42  43
ATOM     43  C19 UNK     0      -4.947  -1.021  -3.447  0.00  0.00    +0.000 C 
ATOM     44  C23 UNK     0      -3.429  -1.232  -3.371  0.00  0.00    +0.000 C 
ATOM     45  C22 UNK     0      -5.291   0.472  -3.494  0.00  0.00    +0.000 C 
ENDBRANCH  42  43
ENDBRANCH  35  42
ENDBRANCH  32  35
ENDBRANCH  30  31
BRANCH  30  46
ATOM     46  C24 UNK     0      -3.010  -1.535   2.496  0.00  0.00    +0.000 C 
BRANCH  46  47
ATOM     47  C29 UNK     0      -1.954  -1.217   3.525  0.00  0.00    +0.000 A 
ATOM     48  C37 UNK     0      -0.993  -2.181   3.868  0.00  0.00    +0.000 A 
ATOM     49  C45 UNK     0      -0.025  -1.894   4.838  0.00  0.00    +0.000 A 
ATOM     50  C47 UNK     0       0.007  -0.638   5.444  0.00  0.00    +0.000 A 
ATOM     51  C46 UNK     0      -0.936   0.333   5.099  0.00  0.00    +0.000 A 
ATOM     52  C38 UNK     0      -1.921   0.044   4.152  0.00  0.00    +0.000 A 
ENDBRANCH  46  47
ENDBRANCH  30  46
ENDBRANCH  27  30
ENDBRANCH   1  26
BRANCH   1  53
ATOM     53  C26 UNK     0      -0.361   1.826  -1.797  0.00  0.00    +0.000 C 
BRANCH  53  54
ATOM     54  C28 UNK     0      -1.834   2.268  -1.972  0.00  0.00    +0.000 C 
ATOM     55  C33 UNK     0      -2.097   2.648  -3.435  0.00  0.00    +0.000 C 
ATOM     56  C34 UNK     0      -2.199   3.448  -1.053  0.00  0.00    +0.000 C 
ENDBRANCH  53  54
ENDBRANCH   1  53
TORSDOF 20
