REMARK  Name = C:\Users\Maximilian\Desktop\Conformers\converted_pdb\conformers_pdb\TAK_242_conf_41.pdb
REMARK  25 active torsions:
REMARK  status: ('A' for Active; 'I' for Inactive)
REMARK    1  A    between atoms: C25_1  and  N10_2
REMARK    2  A    between atoms: C25_1  and  C27_26
REMARK    3  A    between atoms: C25_1  and  C26_53
REMARK    4  A    between atoms: C31_4  and  C30_6
REMARK    5  A    between atoms: C30_6  and  C32_7
REMARK    6  A    between atoms: C30_6  and  N11_15
REMARK    7  A    between atoms: C32_7  and  C35_8
REMARK    8  A    between atoms: C35_8  and  C44_9
REMARK    9  A    between atoms: C41_16  and  C36_19
REMARK   10  A    between atoms: C36_19  and  N12_20
REMARK   11  A    between atoms: N9_27  and  C21_30
REMARK   12  A    between atoms: C21_30  and  C24_31
REMARK   13  A    between atoms: C21_30  and  C20_38
REMARK   14  A    between atoms: C24_31  and  C29_32
REMARK   15  A    between atoms: N8_39  and  C15_42
REMARK   16  A    between atoms: C15_42  and  C18_43
REMARK   17  A    between atoms: C15_42  and  C16_47
REMARK   18  A    between atoms: C18_43  and  C19_44
REMARK   19  A    between atoms: C19_44  and  C23_45
REMARK   20  A    between atoms: C19_44  and  C22_46
REMARK   21  A    between atoms: C16_47  and  C13_49
REMARK   22  A    between atoms: C13_49  and  C17_52
REMARK   23  A    between atoms: C26_53  and  C28_54
REMARK   24  A    between atoms: C28_54  and  C33_55
REMARK   25  A    between atoms: C28_54  and  C34_56
REMARK                            x       y       z     vdW  Elec       q    Type
REMARK                         _______ _______ _______ _____ _____    ______ ____
ROOT
ATOM      1  C25 UNK     0      -0.789   1.439   1.783  0.00  0.00    +0.000 C 
ENDROOT
BRANCH   1   2
ATOM      2  N10 UNK     0      -1.993   1.852   1.049  0.00  0.00    +0.000 N 
ATOM      3  H77 UNK     0      -2.044   1.656   0.023  0.00  0.00    +0.000 HD
ATOM      4  C31 UNK     0      -3.169   2.341   1.717  0.00  0.00    +0.000 C 
ATOM      5  O6  UNK     0      -3.087   2.742   2.913  0.00  0.00    +0.000 OA
BRANCH   4   6
ATOM      6  C30 UNK     0      -4.472   2.506   0.961  0.00  0.00    +0.000 C 
BRANCH   6   7
ATOM      7  N11 UNK     0      -4.579   1.536  -0.134  0.00  0.00    +0.000 N 
ATOM      8  C41 UNK     0      -5.051   1.900  -1.440  0.00  0.00    +0.000 C 
ATOM      9  O7  UNK     0      -5.659   2.990  -1.619  0.00  0.00    +0.000 OA
ATOM     10  H87 UNK     0      -4.241   0.556   0.009  0.00  0.00    +0.000 HD
BRANCH   8  11
ATOM     11  C36 UNK     0      -4.786   0.998  -2.610  0.00  0.00    +0.000 C 
BRANCH  11  12
ATOM     12  N12 UNK     0      -5.414  -0.323  -2.416  0.00  0.00    +0.000 NA
ATOM     13  C39 UNK     0      -6.892  -0.227  -2.467  0.00  0.00    +0.000 C 
ATOM     14  C42 UNK     0      -7.541  -1.603  -2.715  0.00  0.00    +0.000 C 
ATOM     15  O5  UNK     0      -6.660  -2.639  -2.336  0.00  0.00    +0.000 OA
ATOM     16  C43 UNK     0      -5.538  -2.663  -3.205  0.00  0.00    +0.000 C 
ATOM     17  C40 UNK     0      -4.928  -1.266  -3.438  0.00  0.00    +0.000 C 
ENDBRANCH  11  12
ENDBRANCH   8  11
ENDBRANCH   6   7
BRANCH   6  18
ATOM     18  C32 UNK     0      -5.730   2.453   1.860  0.00  0.00    +0.000 C 
BRANCH  18  19
ATOM     19  C35 UNK     0      -5.851   1.220   2.781  0.00  0.00    +0.000 C 
BRANCH  19  20
ATOM     20  C44 UNK     0      -6.200  -0.047   2.046  0.00  0.00    +0.000 A 
ATOM     21  C49 UNK     0      -5.262  -1.086   1.928  0.00  0.00    +0.000 A 
ATOM     22  C51 UNK     0      -5.607  -2.283   1.297  0.00  0.00    +0.000 A 
ATOM     23  C52 UNK     0      -6.896  -2.459   0.790  0.00  0.00    +0.000 A 
ATOM     24  C50 UNK     0      -7.836  -1.432   0.900  0.00  0.00    +0.000 A 
ATOM     25  C48 UNK     0      -7.488  -0.227   1.514  0.00  0.00    +0.000 A 
ENDBRANCH  19  20
ENDBRANCH  18  19
ENDBRANCH   6  18
ENDBRANCH   4   6
ENDBRANCH   1   2
BRANCH   1  26
ATOM     26  C27 UNK     0       0.466   1.684   0.973  0.00  0.00    +0.000 C 
ATOM     27  N9  UNK     0       1.749   1.311   1.496  0.00  0.00    +0.000 N 
ATOM     28  H73 UNK     0       1.831   1.158   2.524  0.00  0.00    +0.000 HD
ATOM     29  O4  UNK     0       0.393   2.266  -0.140  0.00  0.00    +0.000 OA
BRANCH  27  30
ATOM     30  C21 UNK     0       2.967   1.350   0.678  0.00  0.00    +0.000 C 
BRANCH  30  31
ATOM     31  C20 UNK     0       3.913   0.238   1.076  0.00  0.00    +0.000 C 
ATOM     32  N8  UNK     0       4.767  -0.361   0.088  0.00  0.00    +0.000 N 
ATOM     33  H62 UNK     0       4.836   0.090  -0.851  0.00  0.00    +0.000 HD
ATOM     34  O3  UNK     0       3.983  -0.133   2.282  0.00  0.00    +0.000 OA
BRANCH  32  35
ATOM     35  C15 UNK     0       5.510  -1.608   0.318  0.00  0.00    +0.000 C 
BRANCH  35  36
ATOM     36  C16 UNK     0       4.991  -2.719  -0.572  0.00  0.00    +0.000 C 
ATOM     37  O2  UNK     0       5.287  -3.875  -0.305  0.00  0.00    +0.000 OA
BRANCH  36  38
ATOM     38  C13 UNK     0       4.110  -2.452  -1.764  0.00  0.00    +0.000 C 
ATOM     39  O1  UNK     0       4.414  -3.280  -2.859  0.00  0.00    +0.000 OA
ATOM     40  C14 UNK     0       4.739  -1.913  -2.991  0.00  0.00    +0.000 C 
ATOM     41  C17 UNK     0       2.609  -2.249  -1.574  0.00  0.00    +0.000 C 
ENDBRANCH  36  38
ENDBRANCH  35  36
BRANCH  35  42
ATOM     42  C18 UNK     0       7.017  -1.390   0.075  0.00  0.00    +0.000 C 
BRANCH  42  43
ATOM     43  C19 UNK     0       7.656  -0.372   1.049  0.00  0.00    +0.000 C 
ATOM     44  C23 UNK     0       9.060   0.011   0.566  0.00  0.00    +0.000 C 
ATOM     45  C22 UNK     0       7.720  -0.910   2.488  0.00  0.00    +0.000 C 
ENDBRANCH  42  43
ENDBRANCH  35  42
ENDBRANCH  32  35
ENDBRANCH  30  31
BRANCH  30  46
ATOM     46  C24 UNK     0       3.631   2.734   0.812  0.00  0.00    +0.000 C 
BRANCH  46  47
ATOM     47  C29 UNK     0       4.785   2.914  -0.142  0.00  0.00    +0.000 A 
ATOM     48  C37 UNK     0       6.101   2.995   0.342  0.00  0.00    +0.000 A 
ATOM     49  C45 UNK     0       7.173   3.110  -0.547  0.00  0.00    +0.000 A 
ATOM     50  C47 UNK     0       6.942   3.139  -1.924  0.00  0.00    +0.000 A 
ATOM     51  C46 UNK     0       5.634   3.080  -2.413  0.00  0.00    +0.000 A 
ATOM     52  C38 UNK     0       4.558   2.972  -1.528  0.00  0.00    +0.000 A 
ENDBRANCH  46  47
ENDBRANCH  30  46
ENDBRANCH  27  30
ENDBRANCH   1  26
BRANCH   1  53
ATOM     53  C26 UNK     0      -0.924  -0.028   2.262  0.00  0.00    +0.000 C 
BRANCH  53  54
ATOM     54  C28 UNK     0      -1.369  -1.060   1.191  0.00  0.00    +0.000 C 
ATOM     55  C33 UNK     0      -1.568  -2.429   1.854  0.00  0.00    +0.000 C 
ATOM     56  C34 UNK     0      -0.363  -1.188   0.040  0.00  0.00    +0.000 C 
ENDBRANCH  53  54
ENDBRANCH   1  53
TORSDOF 20
