REMARK  Name = C:\Users\Maximilian\Desktop\Conformers\converted_pdb\conformers_pdb\TAK_242_conf_80.pdb
REMARK  25 active torsions:
REMARK  status: ('A' for Active; 'I' for Inactive)
REMARK    1  A    between atoms: C25_1  and  N10_2
REMARK    2  A    between atoms: C25_1  and  C27_26
REMARK    3  A    between atoms: C25_1  and  C26_53
REMARK    4  A    between atoms: C31_4  and  C30_6
REMARK    5  A    between atoms: C30_6  and  C32_7
REMARK    6  A    between atoms: C30_6  and  N11_15
REMARK    7  A    between atoms: C32_7  and  C35_8
REMARK    8  A    between atoms: C35_8  and  C44_9
REMARK    9  A    between atoms: C41_16  and  C36_19
REMARK   10  A    between atoms: C36_19  and  N12_20
REMARK   11  A    between atoms: N9_27  and  C21_30
REMARK   12  A    between atoms: C21_30  and  C24_31
REMARK   13  A    between atoms: C21_30  and  C20_38
REMARK   14  A    between atoms: C24_31  and  C29_32
REMARK   15  A    between atoms: N8_39  and  C15_42
REMARK   16  A    between atoms: C15_42  and  C18_43
REMARK   17  A    between atoms: C15_42  and  C16_47
REMARK   18  A    between atoms: C18_43  and  C19_44
REMARK   19  A    between atoms: C19_44  and  C23_45
REMARK   20  A    between atoms: C19_44  and  C22_46
REMARK   21  A    between atoms: C16_47  and  C13_49
REMARK   22  A    between atoms: C13_49  and  C17_52
REMARK   23  A    between atoms: C26_53  and  C28_54
REMARK   24  A    between atoms: C28_54  and  C33_55
REMARK   25  A    between atoms: C28_54  and  C34_56
REMARK                            x       y       z     vdW  Elec       q    Type
REMARK                         _______ _______ _______ _____ _____    ______ ____
ROOT
ATOM      1  C25 UNK     0      -0.033   0.717  -1.795  0.00  0.00    +0.000 C 
ENDROOT
BRANCH   1   2
ATOM      2  N10 UNK     0      -1.186   0.965  -0.924  0.00  0.00    +0.000 N 
ATOM      3  H77 UNK     0      -1.032   1.496  -0.038  0.00  0.00    +0.000 HD
ATOM      4  C31 UNK     0      -2.480   0.393  -1.155  0.00  0.00    +0.000 C 
ATOM      5  O6  UNK     0      -2.723  -0.219  -2.232  0.00  0.00    +0.000 OA
BRANCH   4   6
ATOM      6  C30 UNK     0      -3.547   0.506  -0.097  0.00  0.00    +0.000 C 
BRANCH   6   7
ATOM      7  N11 UNK     0      -4.868   0.682  -0.709  0.00  0.00    +0.000 N 
ATOM      8  C41 UNK     0      -5.387   1.979  -1.038  0.00  0.00    +0.000 C 
ATOM      9  O7  UNK     0      -4.714   3.019  -0.790  0.00  0.00    +0.000 OA
ATOM     10  H87 UNK     0      -5.391  -0.155  -1.053  0.00  0.00    +0.000 HD
BRANCH   8  11
ATOM     11  C36 UNK     0      -6.745   2.120  -1.658  0.00  0.00    +0.000 C 
BRANCH  11  12
ATOM     12  N12 UNK     0      -7.631   2.911  -0.782  0.00  0.00    +0.000 NA
ATOM     13  C39 UNK     0      -8.040   2.132   0.405  0.00  0.00    +0.000 C 
ATOM     14  C42 UNK     0      -8.996   2.968   1.261  0.00  0.00    +0.000 C 
ATOM     15  O5  UNK     0     -10.143   3.332   0.518  0.00  0.00    +0.000 OA
ATOM     16  C43 UNK     0      -9.763   4.124  -0.591  0.00  0.00    +0.000 C 
ATOM     17  C40 UNK     0      -8.829   3.343  -1.524  0.00  0.00    +0.000 C 
ENDBRANCH  11  12
ENDBRANCH   8  11
ENDBRANCH   6   7
BRANCH   6  18
ATOM     18  C32 UNK     0      -3.526  -0.686   0.881  0.00  0.00    +0.000 C 
BRANCH  18  19
ATOM     19  C35 UNK     0      -3.694  -2.065   0.221  0.00  0.00    +0.000 C 
BRANCH  19  20
ATOM     20  C44 UNK     0      -3.553  -3.155   1.246  0.00  0.00    +0.000 A 
ATOM     21  C49 UNK     0      -2.293  -3.720   1.506  0.00  0.00    +0.000 A 
ATOM     22  C51 UNK     0      -2.153  -4.708   2.484  0.00  0.00    +0.000 A 
ATOM     23  C52 UNK     0      -3.267  -5.132   3.216  0.00  0.00    +0.000 A 
ATOM     24  C50 UNK     0      -4.521  -4.565   2.973  0.00  0.00    +0.000 A 
ATOM     25  C48 UNK     0      -4.666  -3.577   1.993  0.00  0.00    +0.000 A 
ENDBRANCH  19  20
ENDBRANCH  18  19
ENDBRANCH   6  18
ENDBRANCH   4   6
ENDBRANCH   1   2
BRANCH   1  26
ATOM     26  C27 UNK     0       0.851  -0.369  -1.218  0.00  0.00    +0.000 C 
ATOM     27  N9  UNK     0       0.799  -0.727   0.179  0.00  0.00    +0.000 N 
ATOM     28  H73 UNK     0      -0.063  -0.501   0.720  0.00  0.00    +0.000 HD
ATOM     29  O4  UNK     0       1.708  -0.899  -1.973  0.00  0.00    +0.000 OA
BRANCH  27  30
ATOM     30  C21 UNK     0       1.912  -1.297   0.958  0.00  0.00    +0.000 C 
BRANCH  30  31
ATOM     31  C20 UNK     0       3.231  -0.586   0.713  0.00  0.00    +0.000 C 
ATOM     32  N8  UNK     0       4.414  -0.983   1.432  0.00  0.00    +0.000 N 
ATOM     33  H62 UNK     0       4.405  -1.881   1.965  0.00  0.00    +0.000 HD
ATOM     34  O3  UNK     0       3.266   0.438  -0.020  0.00  0.00    +0.000 OA
BRANCH  32  35
ATOM     35  C15 UNK     0       5.584  -0.115   1.615  0.00  0.00    +0.000 C 
BRANCH  35  36
ATOM     36  C16 UNK     0       6.231   0.182   0.275  0.00  0.00    +0.000 C 
ATOM     37  O2  UNK     0       5.923   1.188  -0.350  0.00  0.00    +0.000 OA
BRANCH  36  38
ATOM     38  C13 UNK     0       7.207  -0.794  -0.328  0.00  0.00    +0.000 C 
ATOM     39  O1  UNK     0       7.547  -0.482  -1.660  0.00  0.00    +0.000 OA
ATOM     40  C14 UNK     0       6.729  -1.615  -1.464  0.00  0.00    +0.000 C 
ATOM     41  C17 UNK     0       8.406  -1.289   0.478  0.00  0.00    +0.000 C 
ENDBRANCH  36  38
ENDBRANCH  35  36
BRANCH  35  42
ATOM     42  C18 UNK     0       5.178   1.152   2.415  0.00  0.00    +0.000 C 
BRANCH  42  43
ATOM     43  C19 UNK     0       6.326   1.920   3.117  0.00  0.00    +0.000 C 
ATOM     44  C23 UNK     0       7.263   2.625   2.133  0.00  0.00    +0.000 C 
ATOM     45  C22 UNK     0       7.115   1.046   4.104  0.00  0.00    +0.000 C 
ENDBRANCH  42  43
ENDBRANCH  35  42
ENDBRANCH  32  35
ENDBRANCH  30  31
BRANCH  30  46
ATOM     46  C24 UNK     0       1.961  -2.838   0.840  0.00  0.00    +0.000 C 
BRANCH  46  47
ATOM     47  C29 UNK     0       2.321  -3.364  -0.525  0.00  0.00    +0.000 A 
ATOM     48  C37 UNK     0       1.314  -3.769  -1.419  0.00  0.00    +0.000 A 
ATOM     49  C45 UNK     0       1.651  -4.286  -2.674  0.00  0.00    +0.000 A 
ATOM     50  C47 UNK     0       2.991  -4.403  -3.046  0.00  0.00    +0.000 A 
ATOM     51  C46 UNK     0       3.998  -4.012  -2.160  0.00  0.00    +0.000 A 
ATOM     52  C38 UNK     0       3.667  -3.496  -0.904  0.00  0.00    +0.000 A 
ENDBRANCH  46  47
ENDBRANCH  30  46
ENDBRANCH  27  30
ENDBRANCH   1  26
BRANCH   1  53
ATOM     53  C26 UNK     0       0.789   2.014  -1.979  0.00  0.00    +0.000 C 
BRANCH  53  54
ATOM     54  C28 UNK     0       0.152   3.027  -2.963  0.00  0.00    +0.000 C 
ATOM     55  C33 UNK     0       1.157   4.143  -3.283  0.00  0.00    +0.000 C 
ATOM     56  C34 UNK     0      -1.146   3.643  -2.417  0.00  0.00    +0.000 C 
ENDBRANCH  53  54
ENDBRANCH   1  53
TORSDOF 20
