REMARK  Name = C:\Users\Maximilian\Desktop\Conformers\converted_pdb\conformers_pdb\TAK_242_conf_50.pdb
REMARK  25 active torsions:
REMARK  status: ('A' for Active; 'I' for Inactive)
REMARK    1  A    between atoms: C25_1  and  N10_2
REMARK    2  A    between atoms: C25_1  and  C27_26
REMARK    3  A    between atoms: C25_1  and  C26_53
REMARK    4  A    between atoms: C31_4  and  C30_6
REMARK    5  A    between atoms: C30_6  and  C32_7
REMARK    6  A    between atoms: C30_6  and  N11_15
REMARK    7  A    between atoms: C32_7  and  C35_8
REMARK    8  A    between atoms: C35_8  and  C44_9
REMARK    9  A    between atoms: C41_16  and  C36_19
REMARK   10  A    between atoms: C36_19  and  N12_20
REMARK   11  A    between atoms: N9_27  and  C21_30
REMARK   12  A    between atoms: C21_30  and  C24_31
REMARK   13  A    between atoms: C21_30  and  C20_38
REMARK   14  A    between atoms: C24_31  and  C29_32
REMARK   15  A    between atoms: N8_39  and  C15_42
REMARK   16  A    between atoms: C15_42  and  C18_43
REMARK   17  A    between atoms: C15_42  and  C16_47
REMARK   18  A    between atoms: C18_43  and  C19_44
REMARK   19  A    between atoms: C19_44  and  C23_45
REMARK   20  A    between atoms: C19_44  and  C22_46
REMARK   21  A    between atoms: C16_47  and  C13_49
REMARK   22  A    between atoms: C13_49  and  C17_52
REMARK   23  A    between atoms: C26_53  and  C28_54
REMARK   24  A    between atoms: C28_54  and  C33_55
REMARK   25  A    between atoms: C28_54  and  C34_56
REMARK                            x       y       z     vdW  Elec       q    Type
REMARK                         _______ _______ _______ _____ _____    ______ ____
ROOT
ATOM      1  C25 UNK     0       0.510  -1.341  -0.723  0.00  0.00    +0.000 C 
ENDROOT
BRANCH   1   2
ATOM      2  N10 UNK     0       1.632  -0.537  -0.221  0.00  0.00    +0.000 N 
ATOM      3  H77 UNK     0       2.058  -0.766   0.706  0.00  0.00    +0.000 HD
ATOM      4  C31 UNK     0       2.173   0.560  -0.970  0.00  0.00    +0.000 C 
ATOM      5  O6  UNK     0       1.656   0.880  -2.077  0.00  0.00    +0.000 OA
BRANCH   4   6
ATOM      6  C30 UNK     0       3.319   1.374  -0.415  0.00  0.00    +0.000 C 
BRANCH   6   7
ATOM      7  N11 UNK     0       4.343   1.595  -1.443  0.00  0.00    +0.000 N 
ATOM      8  C41 UNK     0       5.675   2.011  -1.099  0.00  0.00    +0.000 C 
ATOM      9  O7  UNK     0       6.005   2.121   0.114  0.00  0.00    +0.000 OA
ATOM     10  H87 UNK     0       4.113   1.467  -2.451  0.00  0.00    +0.000 HD
BRANCH   8  11
ATOM     11  C36 UNK     0       6.667   2.360  -2.187  0.00  0.00    +0.000 C 
BRANCH  11  12
ATOM     12  N12 UNK     0       7.911   1.557  -2.164  0.00  0.00    +0.000 NA
ATOM     13  C39 UNK     0       8.853   1.940  -1.097  0.00  0.00    +0.000 C 
ATOM     14  C42 UNK     0      10.144   1.120  -1.242  0.00  0.00    +0.000 C 
ATOM     15  O5  UNK     0       9.858  -0.268  -1.186  0.00  0.00    +0.000 OA
ATOM     16  C43 UNK     0       9.013  -0.628  -2.265  0.00  0.00    +0.000 C 
ATOM     17  C40 UNK     0       7.669   0.103  -2.170  0.00  0.00    +0.000 C 
ENDBRANCH  11  12
ENDBRANCH   8  11
ENDBRANCH   6   7
BRANCH   6  18
ATOM     18  C32 UNK     0       2.803   2.733   0.109  0.00  0.00    +0.000 C 
BRANCH  18  19
ATOM     19  C35 UNK     0       2.121   2.630   1.484  0.00  0.00    +0.000 C 
BRANCH  19  20
ATOM     20  C44 UNK     0       3.100   2.283   2.578  0.00  0.00    +0.000 A 
ATOM     21  C49 UNK     0       3.037   1.033   3.220  0.00  0.00    +0.000 A 
ATOM     22  C51 UNK     0       3.977   0.703   4.200  0.00  0.00    +0.000 A 
ATOM     23  C52 UNK     0       4.971   1.617   4.562  0.00  0.00    +0.000 A 
ATOM     24  C50 UNK     0       5.029   2.865   3.938  0.00  0.00    +0.000 A 
ATOM     25  C48 UNK     0       4.101   3.200   2.948  0.00  0.00    +0.000 A 
ENDBRANCH  19  20
ENDBRANCH  18  19
ENDBRANCH   6  18
ENDBRANCH   4   6
ENDBRANCH   1   2
BRANCH   1  26
ATOM     26  C27 UNK     0      -0.761  -0.545  -0.665  0.00  0.00    +0.000 C 
ATOM     27  N9  UNK     0      -1.813  -0.802  -1.614  0.00  0.00    +0.000 N 
ATOM     28  H73 UNK     0      -1.608  -1.438  -2.409  0.00  0.00    +0.000 HD
ATOM     29  O4  UNK     0      -0.921   0.317   0.249  0.00  0.00    +0.000 OA
BRANCH  27  30
ATOM     30  C21 UNK     0      -3.132  -0.167  -1.501  0.00  0.00    +0.000 C 
BRANCH  30  31
ATOM     31  C20 UNK     0      -3.818  -0.621  -0.237  0.00  0.00    +0.000 C 
ATOM     32  N8  UNK     0      -4.631   0.294   0.508  0.00  0.00    +0.000 N 
ATOM     33  H62 UNK     0      -4.790   1.238   0.101  0.00  0.00    +0.000 HD
ATOM     34  O3  UNK     0      -3.693  -1.813   0.147  0.00  0.00    +0.000 OA
BRANCH  32  35
ATOM     35  C15 UNK     0      -5.264  -0.079   1.785  0.00  0.00    +0.000 C 
BRANCH  35  36
ATOM     36  C16 UNK     0      -5.162   1.021   2.826  0.00  0.00    +0.000 C 
ATOM     37  O2  UNK     0      -5.654   0.830   3.925  0.00  0.00    +0.000 OA
BRANCH  36  38
ATOM     38  C13 UNK     0      -4.408   2.309   2.580  0.00  0.00    +0.000 C 
ATOM     39  O1  UNK     0      -4.709   3.302   3.533  0.00  0.00    +0.000 OA
ATOM     40  C14 UNK     0      -5.198   3.515   2.227  0.00  0.00    +0.000 C 
ATOM     41  C17 UNK     0      -2.916   2.287   2.231  0.00  0.00    +0.000 C 
ENDBRANCH  36  38
ENDBRANCH  35  36
BRANCH  35  42
ATOM     42  C18 UNK     0      -6.714  -0.587   1.559  0.00  0.00    +0.000 C 
BRANCH  42  43
ATOM     43  C19 UNK     0      -7.816   0.496   1.388  0.00  0.00    +0.000 C 
ATOM     44  C23 UNK     0      -9.200  -0.177   1.361  0.00  0.00    +0.000 C 
ATOM     45  C22 UNK     0      -7.631   1.338   0.117  0.00  0.00    +0.000 C 
ENDBRANCH  42  43
ENDBRANCH  35  42
ENDBRANCH  32  35
ENDBRANCH  30  31
BRANCH  30  46
ATOM     46  C24 UNK     0      -4.002  -0.425  -2.758  0.00  0.00    +0.000 C 
BRANCH  46  47
ATOM     47  C29 UNK     0      -4.504  -1.846  -2.893  0.00  0.00    +0.000 A 
ATOM     48  C37 UNK     0      -5.723  -2.214  -2.295  0.00  0.00    +0.000 A 
ATOM     49  C45 UNK     0      -6.183  -3.533  -2.388  0.00  0.00    +0.000 A 
ATOM     50  C47 UNK     0      -5.430  -4.491  -3.075  0.00  0.00    +0.000 A 
ATOM     51  C46 UNK     0      -4.227  -4.129  -3.686  0.00  0.00    +0.000 A 
ATOM     52  C38 UNK     0      -3.757  -2.816  -3.589  0.00  0.00    +0.000 A 
ENDBRANCH  46  47
ENDBRANCH  30  46
ENDBRANCH  27  30
ENDBRANCH   1  26
BRANCH   1  53
ATOM     53  C26 UNK     0       0.340  -2.632   0.104  0.00  0.00    +0.000 C 
BRANCH  53  54
ATOM     54  C28 UNK     0       1.549  -3.602   0.026  0.00  0.00    +0.000 C 
ATOM     55  C33 UNK     0       1.710  -4.221  -1.374  0.00  0.00    +0.000 C 
ATOM     56  C34 UNK     0       1.389  -4.724   1.062  0.00  0.00    +0.000 C 
ENDBRANCH  53  54
ENDBRANCH   1  53
TORSDOF 20
