REMARK  Name = C:\Users\Maximilian\Desktop\Conformers\converted_pdb\conformers_pdb\TAK_242_conf_3.pdb
REMARK  25 active torsions:
REMARK  status: ('A' for Active; 'I' for Inactive)
REMARK    1  A    between atoms: C25_1  and  N10_2
REMARK    2  A    between atoms: C25_1  and  C27_26
REMARK    3  A    between atoms: C25_1  and  C26_53
REMARK    4  A    between atoms: C31_4  and  C30_6
REMARK    5  A    between atoms: C30_6  and  C32_7
REMARK    6  A    between atoms: C30_6  and  N11_15
REMARK    7  A    between atoms: C32_7  and  C35_8
REMARK    8  A    between atoms: C35_8  and  C44_9
REMARK    9  A    between atoms: C41_16  and  C36_19
REMARK   10  A    between atoms: C36_19  and  N12_20
REMARK   11  A    between atoms: N9_27  and  C21_30
REMARK   12  A    between atoms: C21_30  and  C24_31
REMARK   13  A    between atoms: C21_30  and  C20_38
REMARK   14  A    between atoms: C24_31  and  C29_32
REMARK   15  A    between atoms: N8_39  and  C15_42
REMARK   16  A    between atoms: C15_42  and  C18_43
REMARK   17  A    between atoms: C15_42  and  C16_47
REMARK   18  A    between atoms: C18_43  and  C19_44
REMARK   19  A    between atoms: C19_44  and  C23_45
REMARK   20  A    between atoms: C19_44  and  C22_46
REMARK   21  A    between atoms: C16_47  and  C13_49
REMARK   22  A    between atoms: C13_49  and  C17_52
REMARK   23  A    between atoms: C26_53  and  C28_54
REMARK   24  A    between atoms: C28_54  and  C33_55
REMARK   25  A    between atoms: C28_54  and  C34_56
REMARK                            x       y       z     vdW  Elec       q    Type
REMARK                         _______ _______ _______ _____ _____    ______ ____
ROOT
ATOM      1  C25 UNK     0      -0.098  -2.732   0.139  0.00  0.00    +0.000 C 
ENDROOT
BRANCH   1   2
ATOM      2  N10 UNK     0      -1.368  -2.055  -0.137  0.00  0.00    +0.000 N 
ATOM      3  H77 UNK     0      -1.981  -1.835   0.679  0.00  0.00    +0.000 HD
ATOM      4  C31 UNK     0      -1.844  -1.759  -1.463  0.00  0.00    +0.000 C 
ATOM      5  O6  UNK     0      -1.125  -2.029  -2.462  0.00  0.00    +0.000 OA
BRANCH   4   6
ATOM      6  C30 UNK     0      -3.236  -1.203  -1.664  0.00  0.00    +0.000 C 
BRANCH   6   7
ATOM      7  N11 UNK     0      -3.593  -0.255  -0.601  0.00  0.00    +0.000 N 
ATOM      8  C41 UNK     0      -2.855   0.943  -0.310  0.00  0.00    +0.000 C 
ATOM      9  O7  UNK     0      -1.756   1.171  -0.879  0.00  0.00    +0.000 OA
ATOM     10  H87 UNK     0      -4.459  -0.451  -0.049  0.00  0.00    +0.000 HD
BRANCH   8  11
ATOM     11  C36 UNK     0      -3.404   1.951   0.656  0.00  0.00    +0.000 C 
BRANCH  11  12
ATOM     12  N12 UNK     0      -3.841   1.298   1.905  0.00  0.00    +0.000 NA
ATOM     13  C39 UNK     0      -2.689   0.864   2.719  0.00  0.00    +0.000 C 
ATOM     14  C42 UNK     0      -3.193   0.234   4.024  0.00  0.00    +0.000 C 
ATOM     15  O5  UNK     0      -3.970   1.159   4.761  0.00  0.00    +0.000 OA
ATOM     16  C43 UNK     0      -5.102   1.540   4.003  0.00  0.00    +0.000 C 
ATOM     17  C40 UNK     0      -4.682   2.218   2.692  0.00  0.00    +0.000 C 
ENDBRANCH  11  12
ENDBRANCH   8  11
ENDBRANCH   6   7
BRANCH   6  18
ATOM     18  C32 UNK     0      -3.416  -0.561  -3.060  0.00  0.00    +0.000 C 
BRANCH  18  19
ATOM     19  C35 UNK     0      -4.812   0.041  -3.286  0.00  0.00    +0.000 C 
BRANCH  19  20
ATOM     20  C44 UNK     0      -5.912  -0.984  -3.140  0.00  0.00    +0.000 A 
ATOM     21  C49 UNK     0      -6.052  -2.012  -4.085  0.00  0.00    +0.000 A 
ATOM     22  C51 UNK     0      -7.058  -2.974  -3.941  0.00  0.00    +0.000 A 
ATOM     23  C52 UNK     0      -7.936  -2.912  -2.859  0.00  0.00    +0.000 A 
ATOM     24  C50 UNK     0      -7.813  -1.884  -1.919  0.00  0.00    +0.000 A 
ATOM     25  C48 UNK     0      -6.807  -0.922  -2.056  0.00  0.00    +0.000 A 
ENDBRANCH  19  20
ENDBRANCH  18  19
ENDBRANCH   6  18
ENDBRANCH   4   6
ENDBRANCH   1   2
BRANCH   1  26
ATOM     26  C27 UNK     0       1.058  -1.914  -0.392  0.00  0.00    +0.000 C 
ATOM     27  N9  UNK     0       1.277  -0.583   0.106  0.00  0.00    +0.000 N 
ATOM     28  H73 UNK     0       0.524  -0.145   0.687  0.00  0.00    +0.000 HD
ATOM     29  O4  UNK     0       1.831  -2.395  -1.264  0.00  0.00    +0.000 OA
BRANCH  27  30
ATOM     30  C21 UNK     0       2.446   0.224  -0.278  0.00  0.00    +0.000 C 
BRANCH  30  31
ATOM     31  C20 UNK     0       3.028   0.939   0.915  0.00  0.00    +0.000 C 
ATOM     32  N8  UNK     0       4.402   1.364   0.876  0.00  0.00    +0.000 N 
ATOM     33  H62 UNK     0       4.878   1.336  -0.052  0.00  0.00    +0.000 HD
ATOM     34  O3  UNK     0       2.305   1.213   1.910  0.00  0.00    +0.000 OA
BRANCH  32  35
ATOM     35  C15 UNK     0       5.048   2.069   1.988  0.00  0.00    +0.000 C 
BRANCH  35  36
ATOM     36  C16 UNK     0       6.500   1.619   2.105  0.00  0.00    +0.000 C 
ATOM     37  O2  UNK     0       6.780   0.786   2.951  0.00  0.00    +0.000 OA
BRANCH  36  38
ATOM     38  C13 UNK     0       7.575   2.026   1.113  0.00  0.00    +0.000 C 
ATOM     39  O1  UNK     0       8.868   1.887   1.658  0.00  0.00    +0.000 OA
ATOM     40  C14 UNK     0       8.423   3.202   1.425  0.00  0.00    +0.000 C 
ATOM     41  C17 UNK     0       7.532   1.527  -0.328  0.00  0.00    +0.000 C 
ENDBRANCH  36  38
ENDBRANCH  35  36
BRANCH  35  42
ATOM     42  C18 UNK     0       4.881   3.602   1.798  0.00  0.00    +0.000 C 
BRANCH  42  43
ATOM     43  C19 UNK     0       4.657   4.419   3.097  0.00  0.00    +0.000 C 
ATOM     44  C23 UNK     0       5.863   4.390   4.041  0.00  0.00    +0.000 C 
ATOM     45  C22 UNK     0       3.373   4.017   3.839  0.00  0.00    +0.000 C 
ENDBRANCH  42  43
ENDBRANCH  35  42
ENDBRANCH  32  35
ENDBRANCH  30  31
BRANCH  30  46
ATOM     46  C24 UNK     0       2.065   1.244  -1.367  0.00  0.00    +0.000 C 
BRANCH  46  47
ATOM     47  C29 UNK     0       1.958   0.597  -2.724  0.00  0.00    +0.000 A 
ATOM     48  C37 UNK     0       0.708   0.408  -3.334  0.00  0.00    +0.000 A 
ATOM     49  C45 UNK     0       0.618  -0.194  -4.593  0.00  0.00    +0.000 A 
ATOM     50  C47 UNK     0       1.777  -0.621  -5.246  0.00  0.00    +0.000 A 
ATOM     51  C46 UNK     0       3.027  -0.435  -4.649  0.00  0.00    +0.000 A 
ATOM     52  C38 UNK     0       3.119   0.177  -3.395  0.00  0.00    +0.000 A 
ENDBRANCH  46  47
ENDBRANCH  30  46
ENDBRANCH  27  30
ENDBRANCH   1  26
BRANCH   1  53
ATOM     53  C26 UNK     0      -0.106  -4.186  -0.399  0.00  0.00    +0.000 C 
BRANCH  53  54
ATOM     54  C28 UNK     0      -1.334  -5.017   0.047  0.00  0.00    +0.000 C 
ATOM     55  C33 UNK     0      -1.340  -5.256   1.561  0.00  0.00    +0.000 C 
ATOM     56  C34 UNK     0      -1.352  -6.360  -0.694  0.00  0.00    +0.000 C 
ENDBRANCH  53  54
ENDBRANCH   1  53
TORSDOF 20
