REMARK  Name = C:\Users\Maximilian\Desktop\Conformers\converted_pdb\conformers_pdb\TAK_242_conf_25.pdb
REMARK  25 active torsions:
REMARK  status: ('A' for Active; 'I' for Inactive)
REMARK    1  A    between atoms: C25_1  and  N10_2
REMARK    2  A    between atoms: C25_1  and  C27_26
REMARK    3  A    between atoms: C25_1  and  C26_53
REMARK    4  A    between atoms: C31_4  and  C30_6
REMARK    5  A    between atoms: C30_6  and  C32_7
REMARK    6  A    between atoms: C30_6  and  N11_15
REMARK    7  A    between atoms: C32_7  and  C35_8
REMARK    8  A    between atoms: C35_8  and  C44_9
REMARK    9  A    between atoms: C41_16  and  C36_19
REMARK   10  A    between atoms: C36_19  and  N12_20
REMARK   11  A    between atoms: N9_27  and  C21_30
REMARK   12  A    between atoms: C21_30  and  C24_31
REMARK   13  A    between atoms: C21_30  and  C20_38
REMARK   14  A    between atoms: C24_31  and  C29_32
REMARK   15  A    between atoms: N8_39  and  C15_42
REMARK   16  A    between atoms: C15_42  and  C18_43
REMARK   17  A    between atoms: C15_42  and  C16_47
REMARK   18  A    between atoms: C18_43  and  C19_44
REMARK   19  A    between atoms: C19_44  and  C23_45
REMARK   20  A    between atoms: C19_44  and  C22_46
REMARK   21  A    between atoms: C16_47  and  C13_49
REMARK   22  A    between atoms: C13_49  and  C17_52
REMARK   23  A    between atoms: C26_53  and  C28_54
REMARK   24  A    between atoms: C28_54  and  C33_55
REMARK   25  A    between atoms: C28_54  and  C34_56
REMARK                            x       y       z     vdW  Elec       q    Type
REMARK                         _______ _______ _______ _____ _____    ______ ____
ROOT
ATOM      1  C25 UNK     0       0.573  -1.388  -1.541  0.00  0.00    +0.000 C 
ENDROOT
BRANCH   1   2
ATOM      2  N10 UNK     0       1.369  -0.959  -0.391  0.00  0.00    +0.000 N 
ATOM      3  H77 UNK     0       1.741  -1.669   0.276  0.00  0.00    +0.000 HD
ATOM      4  C31 UNK     0       1.676   0.423  -0.163  0.00  0.00    +0.000 C 
ATOM      5  O6  UNK     0       1.016   1.323  -0.756  0.00  0.00    +0.000 OA
BRANCH   4   6
ATOM      6  C30 UNK     0       2.784   0.804   0.782  0.00  0.00    +0.000 C 
BRANCH   6   7
ATOM      7  N11 UNK     0       3.554   1.913   0.215  0.00  0.00    +0.000 N 
ATOM      8  C41 UNK     0       4.963   1.823  -0.056  0.00  0.00    +0.000 C 
ATOM      9  O7  UNK     0       5.570   0.724   0.087  0.00  0.00    +0.000 OA
ATOM     10  H87 UNK     0       3.069   2.824   0.039  0.00  0.00    +0.000 HD
BRANCH   8  11
ATOM     11  C36 UNK     0       5.680   3.034  -0.607  0.00  0.00    +0.000 C 
BRANCH  11  12
ATOM     12  N12 UNK     0       7.151   3.031  -0.447  0.00  0.00    +0.000 NA
ATOM     13  C39 UNK     0       7.621   2.863   0.943  0.00  0.00    +0.000 C 
ATOM     14  C42 UNK     0       9.145   3.114   1.012  0.00  0.00    +0.000 C 
ATOM     15  O5  UNK     0       9.762   3.129  -0.268  0.00  0.00    +0.000 OA
ATOM     16  C43 UNK     0       9.339   2.017  -1.026  0.00  0.00    +0.000 C 
ATOM     17  C40 UNK     0       7.853   2.154  -1.407  0.00  0.00    +0.000 C 
ENDBRANCH  11  12
ENDBRANCH   8  11
ENDBRANCH   6   7
BRANCH   6  18
ATOM     18  C32 UNK     0       2.231   1.221   2.160  0.00  0.00    +0.000 C 
BRANCH  18  19
ATOM     19  C35 UNK     0       1.843   0.024   3.050  0.00  0.00    +0.000 C 
BRANCH  19  20
ATOM     20  C44 UNK     0       3.046  -0.800   3.452  0.00  0.00    +0.000 A 
ATOM     21  C49 UNK     0       4.044  -0.244   4.278  0.00  0.00    +0.000 A 
ATOM     22  C51 UNK     0       5.176  -0.992   4.613  0.00  0.00    +0.000 A 
ATOM     23  C52 UNK     0       5.314  -2.300   4.141  0.00  0.00    +0.000 A 
ATOM     24  C50 UNK     0       4.329  -2.859   3.325  0.00  0.00    +0.000 A 
ATOM     25  C48 UNK     0       3.197  -2.115   2.981  0.00  0.00    +0.000 A 
ENDBRANCH  19  20
ENDBRANCH  18  19
ENDBRANCH   6  18
ENDBRANCH   4   6
ENDBRANCH   1   2
BRANCH   1  26
ATOM     26  C27 UNK     0      -0.874  -1.081  -1.289  0.00  0.00    +0.000 C 
ATOM     27  N9  UNK     0      -1.739  -0.742  -2.385  0.00  0.00    +0.000 N 
ATOM     28  H73 UNK     0      -1.401  -0.951  -3.354  0.00  0.00    +0.000 HD
ATOM     29  O4  UNK     0      -1.333  -1.157  -0.118  0.00  0.00    +0.000 OA
BRANCH  27  30
ATOM     30  C21 UNK     0      -2.922   0.105  -2.205  0.00  0.00    +0.000 C 
BRANCH  30  31
ATOM     31  C20 UNK     0      -3.923  -0.572  -1.300  0.00  0.00    +0.000 C 
ATOM     32  N8  UNK     0      -4.398   0.116  -0.132  0.00  0.00    +0.000 N 
ATOM     33  H62 UNK     0      -4.135   1.122  -0.009  0.00  0.00    +0.000 HD
ATOM     34  O3  UNK     0      -4.311  -1.744  -1.559  0.00  0.00    +0.000 OA
BRANCH  32  35
ATOM     35  C15 UNK     0      -5.021  -0.576   1.000  0.00  0.00    +0.000 C 
BRANCH  35  36
ATOM     36  C16 UNK     0      -3.957  -0.930   2.006  0.00  0.00    +0.000 C 
ATOM     37  O2  UNK     0      -3.120  -0.088   2.308  0.00  0.00    +0.000 OA
BRANCH  36  38
ATOM     38  C13 UNK     0      -3.903  -2.304   2.639  0.00  0.00    +0.000 C 
ATOM     39  O1  UNK     0      -3.054  -2.351   3.764  0.00  0.00    +0.000 OA
ATOM     40  C14 UNK     0      -2.608  -3.033   2.605  0.00  0.00    +0.000 C 
ATOM     41  C17 UNK     0      -5.177  -3.132   2.834  0.00  0.00    +0.000 C 
ENDBRANCH  36  38
ENDBRANCH  35  36
BRANCH  35  42
ATOM     42  C18 UNK     0      -6.082   0.327   1.664  0.00  0.00    +0.000 C 
BRANCH  42  43
ATOM     43  C19 UNK     0      -7.452   0.302   0.944  0.00  0.00    +0.000 C 
ATOM     44  C23 UNK     0      -7.354   0.808  -0.501  0.00  0.00    +0.000 C 
ATOM     45  C22 UNK     0      -8.454   1.162   1.725  0.00  0.00    +0.000 C 
ENDBRANCH  42  43
ENDBRANCH  35  42
ENDBRANCH  32  35
ENDBRANCH  30  31
BRANCH  30  46
ATOM     46  C24 UNK     0      -3.543   0.439  -3.579  0.00  0.00    +0.000 C 
BRANCH  46  47
ATOM     47  C29 UNK     0      -4.716   1.383  -3.472  0.00  0.00    +0.000 A 
ATOM     48  C37 UNK     0      -6.007   0.969  -3.850  0.00  0.00    +0.000 A 
ATOM     49  C45 UNK     0      -7.085   1.861  -3.776  0.00  0.00    +0.000 A 
ATOM     50  C47 UNK     0      -6.883   3.166  -3.317  0.00  0.00    +0.000 A 
ATOM     51  C46 UNK     0      -5.606   3.582  -2.937  0.00  0.00    +0.000 A 
ATOM     52  C38 UNK     0      -4.522   2.701  -3.027  0.00  0.00    +0.000 A 
ENDBRANCH  46  47
ENDBRANCH  30  46
ENDBRANCH  27  30
ENDBRANCH   1  26
BRANCH   1  53
ATOM     53  C26 UNK     0       0.761  -2.901  -1.818  0.00  0.00    +0.000 C 
BRANCH  53  54
ATOM     54  C28 UNK     0       2.110  -3.302  -2.474  0.00  0.00    +0.000 C 
ATOM     55  C33 UNK     0       3.330  -3.023  -1.584  0.00  0.00    +0.000 C 
ATOM     56  C34 UNK     0       2.295  -2.685  -3.867  0.00  0.00    +0.000 C 
ENDBRANCH  53  54
ENDBRANCH   1  53
TORSDOF 20
