REMARK  Name = C:\Users\Maximilian\Desktop\Conformers\converted_pdb\conformers_pdb\TAK_242_conf_30.pdb
REMARK  25 active torsions:
REMARK  status: ('A' for Active; 'I' for Inactive)
REMARK    1  A    between atoms: C25_1  and  N10_2
REMARK    2  A    between atoms: C25_1  and  C27_26
REMARK    3  A    between atoms: C25_1  and  C26_53
REMARK    4  A    between atoms: C31_4  and  C30_6
REMARK    5  A    between atoms: C30_6  and  C32_7
REMARK    6  A    between atoms: C30_6  and  N11_15
REMARK    7  A    between atoms: C32_7  and  C35_8
REMARK    8  A    between atoms: C35_8  and  C44_9
REMARK    9  A    between atoms: C41_16  and  C36_19
REMARK   10  A    between atoms: C36_19  and  N12_20
REMARK   11  A    between atoms: N9_27  and  C21_30
REMARK   12  A    between atoms: C21_30  and  C24_31
REMARK   13  A    between atoms: C21_30  and  C20_38
REMARK   14  A    between atoms: C24_31  and  C29_32
REMARK   15  A    between atoms: N8_39  and  C15_42
REMARK   16  A    between atoms: C15_42  and  C18_43
REMARK   17  A    between atoms: C15_42  and  C16_47
REMARK   18  A    between atoms: C18_43  and  C19_44
REMARK   19  A    between atoms: C19_44  and  C23_45
REMARK   20  A    between atoms: C19_44  and  C22_46
REMARK   21  A    between atoms: C16_47  and  C13_49
REMARK   22  A    between atoms: C13_49  and  C17_52
REMARK   23  A    between atoms: C26_53  and  C28_54
REMARK   24  A    between atoms: C28_54  and  C33_55
REMARK   25  A    between atoms: C28_54  and  C34_56
REMARK                            x       y       z     vdW  Elec       q    Type
REMARK                         _______ _______ _______ _____ _____    ______ ____
ROOT
ATOM      1  C25 UNK     0       0.597  -1.232  -0.519  0.00  0.00    +0.000 C 
ENDROOT
BRANCH   1   2
ATOM      2  N10 UNK     0       1.950  -0.662  -0.571  0.00  0.00    +0.000 N 
ATOM      3  H77 UNK     0       2.263  -0.068   0.230  0.00  0.00    +0.000 HD
ATOM      4  C31 UNK     0       2.840  -0.874  -1.682  0.00  0.00    +0.000 C 
ATOM      5  O6  UNK     0       2.387  -1.297  -2.783  0.00  0.00    +0.000 OA
BRANCH   4   6
ATOM      6  C30 UNK     0       4.328  -0.644  -1.556  0.00  0.00    +0.000 C 
BRANCH   6   7
ATOM      7  N11 UNK     0       4.639   0.202  -0.396  0.00  0.00    +0.000 N 
ATOM      8  C41 UNK     0       4.534   1.634  -0.445  0.00  0.00    +0.000 C 
ATOM      9  O7  UNK     0       4.036   2.201  -1.455  0.00  0.00    +0.000 OA
ATOM     10  H87 UNK     0       4.929  -0.248   0.506  0.00  0.00    +0.000 HD
BRANCH   8  11
ATOM     11  C36 UNK     0       5.026   2.464   0.707  0.00  0.00    +0.000 C 
BRANCH  11  12
ATOM     12  N12 UNK     0       6.092   3.389   0.267  0.00  0.00    +0.000 NA
ATOM     13  C39 UNK     0       7.336   2.657  -0.049  0.00  0.00    +0.000 C 
ATOM     14  C42 UNK     0       8.434   3.654  -0.437  0.00  0.00    +0.000 C 
ATOM     15  O5  UNK     0       8.675   4.568   0.613  0.00  0.00    +0.000 OA
ATOM     16  C43 UNK     0       7.501   5.312   0.878  0.00  0.00    +0.000 C 
ATOM     17  C40 UNK     0       6.362   4.386   1.320  0.00  0.00    +0.000 C 
ENDBRANCH  11  12
ENDBRANCH   8  11
ENDBRANCH   6   7
BRANCH   6  18
ATOM     18  C32 UNK     0       5.057  -1.998  -1.447  0.00  0.00    +0.000 C 
BRANCH  18  19
ATOM     19  C35 UNK     0       6.583  -1.830  -1.482  0.00  0.00    +0.000 C 
BRANCH  19  20
ATOM     20  C44 UNK     0       7.261  -3.172  -1.438  0.00  0.00    +0.000 A 
ATOM     21  C49 UNK     0       7.521  -3.791  -0.204  0.00  0.00    +0.000 A 
ATOM     22  C51 UNK     0       8.114  -5.056  -0.162  0.00  0.00    +0.000 A 
ATOM     23  C52 UNK     0       8.450  -5.712  -1.351  0.00  0.00    +0.000 A 
ATOM     24  C50 UNK     0       8.188  -5.106  -2.583  0.00  0.00    +0.000 A 
ATOM     25  C48 UNK     0       7.590  -3.843  -2.629  0.00  0.00    +0.000 A 
ENDBRANCH  19  20
ENDBRANCH  18  19
ENDBRANCH   6  18
ENDBRANCH   4   6
ENDBRANCH   1   2
BRANCH   1  26
ATOM     26  C27 UNK     0      -0.455  -0.148  -0.483  0.00  0.00    +0.000 C 
ATOM     27  N9  UNK     0      -1.843  -0.498  -0.561  0.00  0.00    +0.000 N 
ATOM     28  H73 UNK     0      -2.087  -1.503  -0.696  0.00  0.00    +0.000 HD
ATOM     29  O4  UNK     0      -0.114   1.066  -0.427  0.00  0.00    +0.000 OA
BRANCH  27  30
ATOM     30  C21 UNK     0      -2.911   0.499  -0.688  0.00  0.00    +0.000 C 
BRANCH  30  31
ATOM     31  C20 UNK     0      -4.134   0.076   0.098  0.00  0.00    +0.000 C 
ATOM     32  N8  UNK     0      -5.325   0.877   0.067  0.00  0.00    +0.000 N 
ATOM     33  H62 UNK     0      -5.323   1.765  -0.485  0.00  0.00    +0.000 HD
ATOM     34  O3  UNK     0      -4.088  -0.947   0.836  0.00  0.00    +0.000 OA
BRANCH  32  35
ATOM     35  C15 UNK     0      -6.465   0.617   0.949  0.00  0.00    +0.000 C 
BRANCH  35  36
ATOM     36  C16 UNK     0      -6.279   1.365   2.251  0.00  0.00    +0.000 C 
ATOM     37  O2  UNK     0      -6.383   0.757   3.308  0.00  0.00    +0.000 OA
BRANCH  36  38
ATOM     38  C13 UNK     0      -5.916   2.827   2.280  0.00  0.00    +0.000 C 
ATOM     39  O1  UNK     0      -6.565   3.513   3.329  0.00  0.00    +0.000 OA
ATOM     40  C14 UNK     0      -6.974   3.828   2.012  0.00  0.00    +0.000 C 
ATOM     41  C17 UNK     0      -4.458   3.255   2.119  0.00  0.00    +0.000 C 
ENDBRANCH  36  38
ENDBRANCH  35  36
BRANCH  35  42
ATOM     42  C18 UNK     0      -7.777   0.989   0.228  0.00  0.00    +0.000 C 
BRANCH  42  43
ATOM     43  C19 UNK     0      -9.059   0.710   1.053  0.00  0.00    +0.000 C 
ATOM     44  C23 UNK     0      -9.291  -0.795   1.271  0.00  0.00    +0.000 C 
ATOM     45  C22 UNK     0     -10.279   1.320   0.351  0.00  0.00    +0.000 C 
ENDBRANCH  42  43
ENDBRANCH  35  42
ENDBRANCH  32  35
ENDBRANCH  30  31
BRANCH  30  46
ATOM     46  C24 UNK     0      -3.216   0.753  -2.181  0.00  0.00    +0.000 C 
BRANCH  46  47
ATOM     47  C29 UNK     0      -3.833  -0.440  -2.873  0.00  0.00    +0.000 A 
ATOM     48  C37 UNK     0      -5.229  -0.551  -2.990  0.00  0.00    +0.000 A 
ATOM     49  C45 UNK     0      -5.799  -1.667  -3.609  0.00  0.00    +0.000 A 
ATOM     50  C47 UNK     0      -4.981  -2.682  -4.111  0.00  0.00    +0.000 A 
ATOM     51  C46 UNK     0      -3.593  -2.580  -4.000  0.00  0.00    +0.000 A 
ATOM     52  C38 UNK     0      -3.019  -1.461  -3.390  0.00  0.00    +0.000 A 
ENDBRANCH  46  47
ENDBRANCH  30  46
ENDBRANCH  27  30
ENDBRANCH   1  26
BRANCH   1  53
ATOM     53  C26 UNK     0       0.467  -2.248   0.643  0.00  0.00    +0.000 C 
BRANCH  53  54
ATOM     54  C28 UNK     0       0.898  -1.768   2.053  0.00  0.00    +0.000 C 
ATOM     55  C33 UNK     0       0.872  -2.953   3.027  0.00  0.00    +0.000 C 
ATOM     56  C34 UNK     0       0.007  -0.641   2.593  0.00  0.00    +0.000 C 
ENDBRANCH  53  54
ENDBRANCH   1  53
TORSDOF 20
