REMARK  Name = C:\Users\Maximilian\Desktop\Conformers\converted_pdb\conformers_pdb\TAK_242_conf_71.pdb
REMARK  25 active torsions:
REMARK  status: ('A' for Active; 'I' for Inactive)
REMARK    1  A    between atoms: C25_1  and  N10_2
REMARK    2  A    between atoms: C25_1  and  C27_26
REMARK    3  A    between atoms: C25_1  and  C26_53
REMARK    4  A    between atoms: C31_4  and  C30_6
REMARK    5  A    between atoms: C30_6  and  C32_7
REMARK    6  A    between atoms: C30_6  and  N11_15
REMARK    7  A    between atoms: C32_7  and  C35_8
REMARK    8  A    between atoms: C35_8  and  C44_9
REMARK    9  A    between atoms: C41_16  and  C36_19
REMARK   10  A    between atoms: C36_19  and  N12_20
REMARK   11  A    between atoms: N9_27  and  C21_30
REMARK   12  A    between atoms: C21_30  and  C24_31
REMARK   13  A    between atoms: C21_30  and  C20_38
REMARK   14  A    between atoms: C24_31  and  C29_32
REMARK   15  A    between atoms: N8_39  and  C15_42
REMARK   16  A    between atoms: C15_42  and  C18_43
REMARK   17  A    between atoms: C15_42  and  C16_47
REMARK   18  A    between atoms: C18_43  and  C19_44
REMARK   19  A    between atoms: C19_44  and  C23_45
REMARK   20  A    between atoms: C19_44  and  C22_46
REMARK   21  A    between atoms: C16_47  and  C13_49
REMARK   22  A    between atoms: C13_49  and  C17_52
REMARK   23  A    between atoms: C26_53  and  C28_54
REMARK   24  A    between atoms: C28_54  and  C33_55
REMARK   25  A    between atoms: C28_54  and  C34_56
REMARK                            x       y       z     vdW  Elec       q    Type
REMARK                         _______ _______ _______ _____ _____    ______ ____
ROOT
ATOM      1  C25 UNK     0       0.899   0.674   1.910  0.00  0.00    +0.000 C 
ENDROOT
BRANCH   1   2
ATOM      2  N10 UNK     0       2.121   0.296   1.185  0.00  0.00    +0.000 N 
ATOM      3  H77 UNK     0       2.921  -0.050   1.757  0.00  0.00    +0.000 HD
ATOM      4  C31 UNK     0       2.321   0.443  -0.234  0.00  0.00    +0.000 C 
ATOM      5  O6  UNK     0       1.344   0.703  -0.991  0.00  0.00    +0.000 OA
BRANCH   4   6
ATOM      6  C30 UNK     0       3.706   0.249  -0.812  0.00  0.00    +0.000 C 
BRANCH   6   7
ATOM      7  N11 UNK     0       4.035  -1.179  -0.800  0.00  0.00    +0.000 N 
ATOM      8  C41 UNK     0       4.837  -1.782   0.228  0.00  0.00    +0.000 C 
ATOM      9  O7  UNK     0       5.376  -1.069   1.118  0.00  0.00    +0.000 OA
ATOM     10  H87 UNK     0       3.557  -1.805  -1.491  0.00  0.00    +0.000 HD
BRANCH   8  11
ATOM     11  C36 UNK     0       4.979  -3.275   0.289  0.00  0.00    +0.000 C 
BRANCH  11  12
ATOM     12  N12 UNK     0       6.175  -3.660   1.072  0.00  0.00    +0.000 NA
ATOM     13  C39 UNK     0       7.429  -3.537   0.288  0.00  0.00    +0.000 C 
ATOM     14  C42 UNK     0       7.837  -4.864  -0.380  0.00  0.00    +0.000 C 
ATOM     15  O5  UNK     0       6.700  -5.663  -0.630  0.00  0.00    +0.000 OA
ATOM     16  C43 UNK     0       6.139  -6.117   0.589  0.00  0.00    +0.000 C 
ATOM     17  C40 UNK     0       6.041  -5.007   1.662  0.00  0.00    +0.000 C 
ENDBRANCH  11  12
ENDBRANCH   8  11
ENDBRANCH   6   7
BRANCH   6  18
ATOM     18  C32 UNK     0       3.846   0.797  -2.248  0.00  0.00    +0.000 C 
BRANCH  18  19
ATOM     19  C35 UNK     0       3.793   2.331  -2.291  0.00  0.00    +0.000 C 
BRANCH  19  20
ATOM     20  C44 UNK     0       3.848   2.826  -3.712  0.00  0.00    +0.000 A 
ATOM     21  C49 UNK     0       5.083   2.985  -4.361  0.00  0.00    +0.000 A 
ATOM     22  C51 UNK     0       5.129   3.431  -5.685  0.00  0.00    +0.000 A 
ATOM     23  C52 UNK     0       3.946   3.710  -6.374  0.00  0.00    +0.000 A 
ATOM     24  C50 UNK     0       2.712   3.533  -5.742  0.00  0.00    +0.000 A 
ATOM     25  C48 UNK     0       2.660   3.082  -4.419  0.00  0.00    +0.000 A 
ENDBRANCH  19  20
ENDBRANCH  18  19
ENDBRANCH   6  18
ENDBRANCH   4   6
ENDBRANCH   1   2
BRANCH   1  26
ATOM     26  C27 UNK     0      -0.266  -0.225   1.557  0.00  0.00    +0.000 C 
ATOM     27  N9  UNK     0      -1.411  -0.268   2.422  0.00  0.00    +0.000 N 
ATOM     28  H73 UNK     0      -1.349   0.220   3.340  0.00  0.00    +0.000 HD
ATOM     29  O4  UNK     0      -0.245  -0.922   0.507  0.00  0.00    +0.000 OA
BRANCH  27  30
ATOM     30  C21 UNK     0      -2.633  -0.998   2.059  0.00  0.00    +0.000 C 
BRANCH  30  31
ATOM     31  C20 UNK     0      -3.328  -0.344   0.890  0.00  0.00    +0.000 C 
ATOM     32  N8  UNK     0      -4.196  -1.118   0.051  0.00  0.00    +0.000 N 
ATOM     33  H62 UNK     0      -4.199  -2.156   0.169  0.00  0.00    +0.000 HD
ATOM     34  O3  UNK     0      -3.175   0.891   0.675  0.00  0.00    +0.000 OA
BRANCH  32  35
ATOM     35  C15 UNK     0      -4.913  -0.529  -1.084  0.00  0.00    +0.000 C 
BRANCH  35  36
ATOM     36  C16 UNK     0      -4.012  -0.532  -2.299  0.00  0.00    +0.000 C 
ATOM     37  O2  UNK     0      -3.409  -1.560  -2.581  0.00  0.00    +0.000 OA
BRANCH  36  38
ATOM     38  C13 UNK     0      -3.873   0.683  -3.196  0.00  0.00    +0.000 C 
ATOM     39  O1  UNK     0      -3.724   0.321  -4.550  0.00  0.00    +0.000 OA
ATOM     40  C14 UNK     0      -2.591   0.881  -3.917  0.00  0.00    +0.000 C 
ATOM     41  C17 UNK     0      -4.788   1.899  -3.032  0.00  0.00    +0.000 C 
ENDBRANCH  36  38
ENDBRANCH  35  36
BRANCH  35  42
ATOM     42  C18 UNK     0      -6.203  -1.319  -1.402  0.00  0.00    +0.000 C 
BRANCH  42  43
ATOM     43  C19 UNK     0      -7.335  -1.101  -0.365  0.00  0.00    +0.000 C 
ATOM     44  C23 UNK     0      -7.188  -2.035   0.847  0.00  0.00    +0.000 C 
ATOM     45  C22 UNK     0      -8.702  -1.330  -1.022  0.00  0.00    +0.000 C 
ENDBRANCH  42  43
ENDBRANCH  35  42
ENDBRANCH  32  35
ENDBRANCH  30  31
BRANCH  30  46
ATOM     46  C24 UNK     0      -3.583  -1.150   3.267  0.00  0.00    +0.000 C 
BRANCH  46  47
ATOM     47  C29 UNK     0      -4.127   0.162   3.790  0.00  0.00    +0.000 A 
ATOM     48  C37 UNK     0      -3.543   0.781   4.908  0.00  0.00    +0.000 A 
ATOM     49  C45 UNK     0      -4.045   1.995   5.389  0.00  0.00    +0.000 A 
ATOM     50  C47 UNK     0      -5.138   2.597   4.761  0.00  0.00    +0.000 A 
ATOM     51  C46 UNK     0      -5.730   1.988   3.652  0.00  0.00    +0.000 A 
ATOM     52  C38 UNK     0      -5.232   0.774   3.170  0.00  0.00    +0.000 A 
ENDBRANCH  46  47
ENDBRANCH  30  46
ENDBRANCH  27  30
ENDBRANCH   1  26
BRANCH   1  53
ATOM     53  C26 UNK     0       0.529   2.167   1.711  0.00  0.00    +0.000 C 
BRANCH  53  54
ATOM     54  C28 UNK     0       1.506   3.200   2.335  0.00  0.00    +0.000 C 
ATOM     55  C33 UNK     0       2.836   3.306   1.582  0.00  0.00    +0.000 C 
ATOM     56  C34 UNK     0       1.741   2.977   3.835  0.00  0.00    +0.000 C 
ENDBRANCH  53  54
ENDBRANCH   1  53
TORSDOF 20
