REMARK  Name = C:\Users\Maximilian\Desktop\Conformers\converted_pdb\conformers_pdb\TAK_242_conf_45.pdb
REMARK  25 active torsions:
REMARK  status: ('A' for Active; 'I' for Inactive)
REMARK    1  A    between atoms: C25_1  and  N10_2
REMARK    2  A    between atoms: C25_1  and  C27_26
REMARK    3  A    between atoms: C25_1  and  C26_53
REMARK    4  A    between atoms: C31_4  and  C30_6
REMARK    5  A    between atoms: C30_6  and  C32_7
REMARK    6  A    between atoms: C30_6  and  N11_15
REMARK    7  A    between atoms: C32_7  and  C35_8
REMARK    8  A    between atoms: C35_8  and  C44_9
REMARK    9  A    between atoms: C41_16  and  C36_19
REMARK   10  A    between atoms: C36_19  and  N12_20
REMARK   11  A    between atoms: N9_27  and  C21_30
REMARK   12  A    between atoms: C21_30  and  C24_31
REMARK   13  A    between atoms: C21_30  and  C20_38
REMARK   14  A    between atoms: C24_31  and  C29_32
REMARK   15  A    between atoms: N8_39  and  C15_42
REMARK   16  A    between atoms: C15_42  and  C18_43
REMARK   17  A    between atoms: C15_42  and  C16_47
REMARK   18  A    between atoms: C18_43  and  C19_44
REMARK   19  A    between atoms: C19_44  and  C23_45
REMARK   20  A    between atoms: C19_44  and  C22_46
REMARK   21  A    between atoms: C16_47  and  C13_49
REMARK   22  A    between atoms: C13_49  and  C17_52
REMARK   23  A    between atoms: C26_53  and  C28_54
REMARK   24  A    between atoms: C28_54  and  C33_55
REMARK   25  A    between atoms: C28_54  and  C34_56
REMARK                            x       y       z     vdW  Elec       q    Type
REMARK                         _______ _______ _______ _____ _____    ______ ____
ROOT
ATOM      1  C25 UNK     0       0.595  -0.479   1.741  0.00  0.00    +0.000 C 
ENDROOT
BRANCH   1   2
ATOM      2  N10 UNK     0       1.982  -0.231   1.335  0.00  0.00    +0.000 N 
ATOM      3  H77 UNK     0       2.435   0.678   1.613  0.00  0.00    +0.000 HD
ATOM      4  C31 UNK     0       2.744  -1.191   0.584  0.00  0.00    +0.000 C 
ATOM      5  O6  UNK     0       2.211  -2.274   0.223  0.00  0.00    +0.000 OA
BRANCH   4   6
ATOM      6  C30 UNK     0       4.197  -0.940   0.263  0.00  0.00    +0.000 C 
BRANCH   6   7
ATOM      7  N11 UNK     0       4.347   0.384  -0.348  0.00  0.00    +0.000 N 
ATOM      8  C41 UNK     0       4.582   0.590  -1.750  0.00  0.00    +0.000 C 
ATOM      9  O7  UNK     0       4.781  -0.393  -2.506  0.00  0.00    +0.000 OA
ATOM     10  H87 UNK     0       4.203   1.216   0.265  0.00  0.00    +0.000 HD
BRANCH   8  11
ATOM     11  C36 UNK     0       4.523   1.968  -2.359  0.00  0.00    +0.000 C 
BRANCH  11  12
ATOM     12  N12 UNK     0       4.716   3.026  -1.348  0.00  0.00    +0.000 NA
ATOM     13  C39 UNK     0       6.139   3.178  -0.983  0.00  0.00    +0.000 C 
ATOM     14  C42 UNK     0       6.276   4.230   0.139  0.00  0.00    +0.000 C 
ATOM     15  O5  UNK     0       5.078   4.960   0.358  0.00  0.00    +0.000 OA
ATOM     16  C43 UNK     0       4.597   5.464  -0.874  0.00  0.00    +0.000 C 
ATOM     17  C40 UNK     0       4.178   4.317  -1.821  0.00  0.00    +0.000 C 
ENDBRANCH  11  12
ENDBRANCH   8  11
ENDBRANCH   6   7
BRANCH   6  18
ATOM     18  C32 UNK     0       5.071  -1.026   1.530  0.00  0.00    +0.000 C 
BRANCH  18  19
ATOM     19  C35 UNK     0       5.103  -2.430   2.159  0.00  0.00    +0.000 C 
BRANCH  19  20
ATOM     20  C44 UNK     0       5.829  -3.425   1.289  0.00  0.00    +0.000 A 
ATOM     21  C49 UNK     0       7.229  -3.453   1.260  0.00  0.00    +0.000 A 
ATOM     22  C51 UNK     0       7.900  -4.356   0.428  0.00  0.00    +0.000 A 
ATOM     23  C52 UNK     0       7.177  -5.230  -0.385  0.00  0.00    +0.000 A 
ATOM     24  C50 UNK     0       5.779  -5.194  -0.378  0.00  0.00    +0.000 A 
ATOM     25  C48 UNK     0       5.108  -4.302   0.463  0.00  0.00    +0.000 A 
ENDBRANCH  19  20
ENDBRANCH  18  19
ENDBRANCH   6  18
ENDBRANCH   4   6
ENDBRANCH   1   2
BRANCH   1  26
ATOM     26  C27 UNK     0      -0.273  -0.632   0.516  0.00  0.00    +0.000 C 
ATOM     27  N9  UNK     0      -1.234  -1.694   0.444  0.00  0.00    +0.000 N 
ATOM     28  H73 UNK     0      -1.337  -2.308   1.277  0.00  0.00    +0.000 HD
ATOM     29  O4  UNK     0      -0.160   0.190  -0.435  0.00  0.00    +0.000 OA
BRANCH  27  30
ATOM     30  C21 UNK     0      -2.016  -1.980  -0.765  0.00  0.00    +0.000 C 
BRANCH  30  31
ATOM     31  C20 UNK     0      -2.898  -0.808  -1.113  0.00  0.00    +0.000 C 
ATOM     32  N8  UNK     0      -3.756  -0.229  -0.122  0.00  0.00    +0.000 N 
ATOM     33  H62 UNK     0      -3.682  -0.583   0.857  0.00  0.00    +0.000 HD
ATOM     34  O3  UNK     0      -2.907  -0.373  -2.296  0.00  0.00    +0.000 OA
BRANCH  32  35
ATOM     35  C15 UNK     0      -4.784   0.767  -0.452  0.00  0.00    +0.000 C 
BRANCH  35  36
ATOM     36  C16 UNK     0      -5.816   0.870   0.651  0.00  0.00    +0.000 C 
ATOM     37  O2  UNK     0      -5.476   0.859   1.828  0.00  0.00    +0.000 OA
BRANCH  36  38
ATOM     38  C13 UNK     0      -7.273   0.985   0.301  0.00  0.00    +0.000 C 
ATOM     39  O1  UNK     0      -8.121   0.494   1.312  0.00  0.00    +0.000 OA
ATOM     40  C14 UNK     0      -8.040  -0.273   0.129  0.00  0.00    +0.000 C 
ATOM     41  C17 UNK     0      -7.799   2.266  -0.332  0.00  0.00    +0.000 C 
ENDBRANCH  36  38
ENDBRANCH  35  36
BRANCH  35  42
ATOM     42  C18 UNK     0      -4.156   2.138  -0.801  0.00  0.00    +0.000 C 
BRANCH  42  43
ATOM     43  C19 UNK     0      -3.240   2.741   0.297  0.00  0.00    +0.000 C 
ATOM     44  C23 UNK     0      -4.009   3.744   1.176  0.00  0.00    +0.000 C 
ATOM     45  C22 UNK     0      -2.022   3.437  -0.332  0.00  0.00    +0.000 C 
ENDBRANCH  42  43
ENDBRANCH  35  42
ENDBRANCH  32  35
ENDBRANCH  30  31
BRANCH  30  46
ATOM     46  C24 UNK     0      -2.856  -3.256  -0.559  0.00  0.00    +0.000 C 
BRANCH  46  47
ATOM     47  C29 UNK     0      -3.657  -3.614  -1.784  0.00  0.00    +0.000 A 
ATOM     48  C37 UNK     0      -3.070  -4.338  -2.833  0.00  0.00    +0.000 A 
ATOM     49  C45 UNK     0      -3.808  -4.642  -3.981  0.00  0.00    +0.000 A 
ATOM     50  C47 UNK     0      -5.135  -4.220  -4.092  0.00  0.00    +0.000 A 
ATOM     51  C46 UNK     0      -5.721  -3.478  -3.064  0.00  0.00    +0.000 A 
ATOM     52  C38 UNK     0      -4.985  -3.175  -1.914  0.00  0.00    +0.000 A 
ENDBRANCH  46  47
ENDBRANCH  30  46
ENDBRANCH  27  30
ENDBRANCH   1  26
BRANCH   1  53
ATOM     53  C26 UNK     0       0.092   0.679   2.637  0.00  0.00    +0.000 C 
BRANCH  53  54
ATOM     54  C28 UNK     0      -1.309   0.443   3.254  0.00  0.00    +0.000 C 
ATOM     55  C33 UNK     0      -1.840   1.742   3.875  0.00  0.00    +0.000 C 
ATOM     56  C34 UNK     0      -1.291  -0.660   4.324  0.00  0.00    +0.000 C 
ENDBRANCH  53  54
ENDBRANCH   1  53
TORSDOF 20
