REMARK  Name = C:\Users\Maximilian\Desktop\Conformers\converted_pdb\conformers_pdb\TAK_242_conf_56.pdb
REMARK  25 active torsions:
REMARK  status: ('A' for Active; 'I' for Inactive)
REMARK    1  A    between atoms: C25_1  and  N10_2
REMARK    2  A    between atoms: C25_1  and  C27_26
REMARK    3  A    between atoms: C25_1  and  C26_53
REMARK    4  A    between atoms: C31_4  and  C30_6
REMARK    5  A    between atoms: C30_6  and  C32_7
REMARK    6  A    between atoms: C30_6  and  N11_15
REMARK    7  A    between atoms: C32_7  and  C35_8
REMARK    8  A    between atoms: C35_8  and  C44_9
REMARK    9  A    between atoms: C41_16  and  C36_19
REMARK   10  A    between atoms: C36_19  and  N12_20
REMARK   11  A    between atoms: N9_27  and  C21_30
REMARK   12  A    between atoms: C21_30  and  C24_31
REMARK   13  A    between atoms: C21_30  and  C20_38
REMARK   14  A    between atoms: C24_31  and  C29_32
REMARK   15  A    between atoms: N8_39  and  C15_42
REMARK   16  A    between atoms: C15_42  and  C18_43
REMARK   17  A    between atoms: C15_42  and  C16_47
REMARK   18  A    between atoms: C18_43  and  C19_44
REMARK   19  A    between atoms: C19_44  and  C23_45
REMARK   20  A    between atoms: C19_44  and  C22_46
REMARK   21  A    between atoms: C16_47  and  C13_49
REMARK   22  A    between atoms: C13_49  and  C17_52
REMARK   23  A    between atoms: C26_53  and  C28_54
REMARK   24  A    between atoms: C28_54  and  C33_55
REMARK   25  A    between atoms: C28_54  and  C34_56
REMARK                            x       y       z     vdW  Elec       q    Type
REMARK                         _______ _______ _______ _____ _____    ______ ____
ROOT
ATOM      1  C25 UNK     0       0.624  -1.606   1.746  0.00  0.00    +0.000 C 
ENDROOT
BRANCH   1   2
ATOM      2  N10 UNK     0       1.299  -0.744   0.770  0.00  0.00    +0.000 N 
ATOM      3  H77 UNK     0       0.838   0.144   0.473  0.00  0.00    +0.000 HD
ATOM      4  C31 UNK     0       2.642  -0.987   0.326  0.00  0.00    +0.000 C 
ATOM      5  O6  UNK     0       3.253  -2.026   0.697  0.00  0.00    +0.000 OA
BRANCH   4   6
ATOM      6  C30 UNK     0       3.335   0.017  -0.560  0.00  0.00    +0.000 C 
BRANCH   6   7
ATOM      7  N11 UNK     0       4.434   0.668   0.167  0.00  0.00    +0.000 N 
ATOM      8  C41 UNK     0       5.684   0.046   0.515  0.00  0.00    +0.000 C 
ATOM      9  O7  UNK     0       5.917  -1.151   0.196  0.00  0.00    +0.000 OA
ATOM     10  H87 UNK     0       4.275   1.654   0.475  0.00  0.00    +0.000 HD
BRANCH   8  11
ATOM     11  C36 UNK     0       6.714   0.792   1.318  0.00  0.00    +0.000 C 
BRANCH  11  12
ATOM     12  N12 UNK     0       6.746   2.225   0.964  0.00  0.00    +0.000 NA
ATOM     13  C39 UNK     0       7.294   2.438  -0.393  0.00  0.00    +0.000 C 
ATOM     14  C42 UNK     0       7.269   3.946  -0.738  0.00  0.00    +0.000 C 
ATOM     15  O5  UNK     0       6.946   4.753   0.384  0.00  0.00    +0.000 OA
ATOM     16  C43 UNK     0       7.792   4.424   1.469  0.00  0.00    +0.000 C 
ATOM     17  C40 UNK     0       7.547   2.980   1.949  0.00  0.00    +0.000 C 
ENDBRANCH  11  12
ENDBRANCH   8  11
ENDBRANCH   6   7
BRANCH   6  18
ATOM     18  C32 UNK     0       3.806  -0.605  -1.892  0.00  0.00    +0.000 C 
BRANCH  18  19
ATOM     19  C35 UNK     0       2.627  -0.916  -2.828  0.00  0.00    +0.000 C 
BRANCH  19  20
ATOM     20  C44 UNK     0       3.108  -1.585  -4.086  0.00  0.00    +0.000 A 
ATOM     21  C49 UNK     0       3.468  -0.817  -5.207  0.00  0.00    +0.000 A 
ATOM     22  C51 UNK     0       3.936  -1.442  -6.367  0.00  0.00    +0.000 A 
ATOM     23  C52 UNK     0       4.056  -2.835  -6.413  0.00  0.00    +0.000 A 
ATOM     24  C50 UNK     0       3.721  -3.601  -5.295  0.00  0.00    +0.000 A 
ATOM     25  C48 UNK     0       3.253  -2.981  -4.132  0.00  0.00    +0.000 A 
ENDBRANCH  19  20
ENDBRANCH  18  19
ENDBRANCH   6  18
ENDBRANCH   4   6
ENDBRANCH   1   2
BRANCH   1  26
ATOM     26  C27 UNK     0      -0.865  -1.503   1.544  0.00  0.00    +0.000 C 
ATOM     27  N9  UNK     0      -1.547  -0.254   1.752  0.00  0.00    +0.000 N 
ATOM     28  H73 UNK     0      -0.981   0.600   1.965  0.00  0.00    +0.000 HD
ATOM     29  O4  UNK     0      -1.508  -2.521   1.166  0.00  0.00    +0.000 OA
BRANCH  27  30
ATOM     30  C21 UNK     0      -2.980  -0.095   1.488  0.00  0.00    +0.000 C 
BRANCH  30  31
ATOM     31  C20 UNK     0      -3.219   0.116   0.012  0.00  0.00    +0.000 C 
ATOM     32  N8  UNK     0      -4.532  -0.091  -0.533  0.00  0.00    +0.000 N 
ATOM     33  H62 UNK     0      -5.281  -0.395   0.128  0.00  0.00    +0.000 HD
ATOM     34  O3  UNK     0      -2.275   0.495  -0.733  0.00  0.00    +0.000 OA
BRANCH  32  35
ATOM     35  C15 UNK     0      -4.814  -0.013  -1.972  0.00  0.00    +0.000 C 
BRANCH  35  36
ATOM     36  C16 UNK     0      -6.091  -0.745  -2.326  0.00  0.00    +0.000 C 
ATOM     37  O2  UNK     0      -7.063  -0.687  -1.586  0.00  0.00    +0.000 OA
BRANCH  36  38
ATOM     38  C13 UNK     0      -6.164  -1.577  -3.579  0.00  0.00    +0.000 C 
ATOM     39  O1  UNK     0      -7.264  -2.461  -3.585  0.00  0.00    +0.000 OA
ATOM     40  C14 UNK     0      -5.981  -3.042  -3.437  0.00  0.00    +0.000 C 
ATOM     41  C17 UNK     0      -5.934  -0.931  -4.945  0.00  0.00    +0.000 C 
ENDBRANCH  36  38
ENDBRANCH  35  36
BRANCH  35  42
ATOM     42  C18 UNK     0      -4.774   1.448  -2.502  0.00  0.00    +0.000 C 
BRANCH  42  43
ATOM     43  C19 UNK     0      -5.880   2.451  -2.066  0.00  0.00    +0.000 C 
ATOM     44  C23 UNK     0      -6.180   2.453  -0.563  0.00  0.00    +0.000 C 
ATOM     45  C22 UNK     0      -7.168   2.336  -2.899  0.00  0.00    +0.000 C 
ENDBRANCH  42  43
ENDBRANCH  35  42
ENDBRANCH  32  35
ENDBRANCH  30  31
BRANCH  30  46
ATOM     46  C24 UNK     0      -3.551   1.087   2.294  0.00  0.00    +0.000 C 
BRANCH  46  47
ATOM     47  C29 UNK     0      -3.381   0.875   3.776  0.00  0.00    +0.000 A 
ATOM     48  C37 UNK     0      -4.231  -0.009   4.462  0.00  0.00    +0.000 A 
ATOM     49  C45 UNK     0      -4.048  -0.245   5.828  0.00  0.00    +0.000 A 
ATOM     50  C47 UNK     0      -3.017   0.397   6.519  0.00  0.00    +0.000 A 
ATOM     51  C46 UNK     0      -2.164   1.275   5.844  0.00  0.00    +0.000 A 
ATOM     52  C38 UNK     0      -2.341   1.512   4.477  0.00  0.00    +0.000 A 
ENDBRANCH  46  47
ENDBRANCH  30  46
ENDBRANCH  27  30
ENDBRANCH   1  26
BRANCH   1  53
ATOM     53  C26 UNK     0       1.057  -1.202   3.177  0.00  0.00    +0.000 C 
BRANCH  53  54
ATOM     54  C28 UNK     0       0.685  -2.188   4.313  0.00  0.00    +0.000 C 
ATOM     55  C33 UNK     0       1.271  -3.591   4.106  0.00  0.00    +0.000 C 
ATOM     56  C34 UNK     0      -0.820  -2.258   4.594  0.00  0.00    +0.000 C 
ENDBRANCH  53  54
ENDBRANCH   1  53
TORSDOF 20
