REMARK  Name = C:\Users\Maximilian\Desktop\Conformers\converted_pdb\conformers_pdb\TAK_242_conf_14.pdb
REMARK  25 active torsions:
REMARK  status: ('A' for Active; 'I' for Inactive)
REMARK    1  A    between atoms: C25_1  and  N10_2
REMARK    2  A    between atoms: C25_1  and  C27_26
REMARK    3  A    between atoms: C25_1  and  C26_53
REMARK    4  A    between atoms: C31_4  and  C30_6
REMARK    5  A    between atoms: C30_6  and  C32_7
REMARK    6  A    between atoms: C30_6  and  N11_15
REMARK    7  A    between atoms: C32_7  and  C35_8
REMARK    8  A    between atoms: C35_8  and  C44_9
REMARK    9  A    between atoms: C41_16  and  C36_19
REMARK   10  A    between atoms: C36_19  and  N12_20
REMARK   11  A    between atoms: N9_27  and  C21_30
REMARK   12  A    between atoms: C21_30  and  C24_31
REMARK   13  A    between atoms: C21_30  and  C20_38
REMARK   14  A    between atoms: C24_31  and  C29_32
REMARK   15  A    between atoms: N8_39  and  C15_42
REMARK   16  A    between atoms: C15_42  and  C18_43
REMARK   17  A    between atoms: C15_42  and  C16_47
REMARK   18  A    between atoms: C18_43  and  C19_44
REMARK   19  A    between atoms: C19_44  and  C23_45
REMARK   20  A    between atoms: C19_44  and  C22_46
REMARK   21  A    between atoms: C16_47  and  C13_49
REMARK   22  A    between atoms: C13_49  and  C17_52
REMARK   23  A    between atoms: C26_53  and  C28_54
REMARK   24  A    between atoms: C28_54  and  C33_55
REMARK   25  A    between atoms: C28_54  and  C34_56
REMARK                            x       y       z     vdW  Elec       q    Type
REMARK                         _______ _______ _______ _____ _____    ______ ____
ROOT
ATOM      1  C25 UNK     0       1.123   1.568  -1.712  0.00  0.00    +0.000 C 
ENDROOT
BRANCH   1   2
ATOM      2  N10 UNK     0       2.459   1.161  -1.252  0.00  0.00    +0.000 N 
ATOM      3  H77 UNK     0       3.071   0.579  -1.873  0.00  0.00    +0.000 HD
ATOM      4  C31 UNK     0       3.018   1.639  -0.016  0.00  0.00    +0.000 C 
ATOM      5  O6  UNK     0       2.380   2.465   0.693  0.00  0.00    +0.000 OA
BRANCH   4   6
ATOM      6  C30 UNK     0       4.376   1.173   0.442  0.00  0.00    +0.000 C 
BRANCH   6   7
ATOM      7  N11 UNK     0       4.500  -0.275   0.244  0.00  0.00    +0.000 N 
ATOM      8  C41 UNK     0       3.717  -1.221   0.989  0.00  0.00    +0.000 C 
ATOM      9  O7  UNK     0       2.864  -0.820   1.823  0.00  0.00    +0.000 OA
ATOM     10  H87 UNK     0       5.203  -0.639  -0.442  0.00  0.00    +0.000 HD
BRANCH   8  11
ATOM     11  C36 UNK     0       3.901  -2.696   0.777  0.00  0.00    +0.000 C 
BRANCH  11  12
ATOM     12  N12 UNK     0       4.261  -3.359   2.051  0.00  0.00    +0.000 NA
ATOM     13  C39 UNK     0       5.618  -3.005   2.515  0.00  0.00    +0.000 C 
ATOM     14  C42 UNK     0       6.722  -3.684   1.671  0.00  0.00    +0.000 C 
ATOM     15  O5  UNK     0       6.226  -4.703   0.822  0.00  0.00    +0.000 OA
ATOM     16  C43 UNK     0       5.371  -5.561   1.547  0.00  0.00    +0.000 C 
ATOM     17  C40 UNK     0       4.090  -4.829   1.986  0.00  0.00    +0.000 C 
ENDBRANCH  11  12
ENDBRANCH   8  11
ENDBRANCH   6   7
BRANCH   6  18
ATOM     18  C32 UNK     0       5.495   1.913  -0.315  0.00  0.00    +0.000 C 
BRANCH  18  19
ATOM     19  C35 UNK     0       5.545   3.408   0.039  0.00  0.00    +0.000 C 
BRANCH  19  20
ATOM     20  C44 UNK     0       6.703   4.073  -0.655  0.00  0.00    +0.000 A 
ATOM     21  C49 UNK     0       6.549   4.592  -1.952  0.00  0.00    +0.000 A 
ATOM     22  C51 UNK     0       7.633   5.186  -2.607  0.00  0.00    +0.000 A 
ATOM     23  C52 UNK     0       8.879   5.251  -1.977  0.00  0.00    +0.000 A 
ATOM     24  C50 UNK     0       9.046   4.716  -0.696  0.00  0.00    +0.000 A 
ATOM     25  C48 UNK     0       7.962   4.132  -0.036  0.00  0.00    +0.000 A 
ENDBRANCH  19  20
ENDBRANCH  18  19
ENDBRANCH   6  18
ENDBRANCH   4   6
ENDBRANCH   1   2
BRANCH   1  26
ATOM     26  C27 UNK     0       0.054   1.160  -0.729  0.00  0.00    +0.000 C 
ATOM     27  N9  UNK     0      -1.170   1.903  -0.650  0.00  0.00    +0.000 N 
ATOM     28  H73 UNK     0      -1.339   2.655  -1.357  0.00  0.00    +0.000 HD
ATOM     29  O4  UNK     0       0.239   0.162   0.022  0.00  0.00    +0.000 OA
BRANCH  27  30
ATOM     30  C21 UNK     0      -2.231   1.584   0.309  0.00  0.00    +0.000 C 
BRANCH  30  31
ATOM     31  C20 UNK     0      -3.313   0.781  -0.372  0.00  0.00    +0.000 C 
ATOM     32  N8  UNK     0      -3.966  -0.286   0.332  0.00  0.00    +0.000 N 
ATOM     33  H62 UNK     0      -3.617  -0.533   1.288  0.00  0.00    +0.000 HD
ATOM     34  O3  UNK     0      -3.684   1.089  -1.535  0.00  0.00    +0.000 OA
BRANCH  32  35
ATOM     35  C15 UNK     0      -5.143  -0.976  -0.203  0.00  0.00    +0.000 C 
BRANCH  35  36
ATOM     36  C16 UNK     0      -5.355  -2.268   0.558  0.00  0.00    +0.000 C 
ATOM     37  O2  UNK     0      -5.738  -2.229   1.720  0.00  0.00    +0.000 OA
BRANCH  36  38
ATOM     38  C13 UNK     0      -5.050  -3.601  -0.076  0.00  0.00    +0.000 C 
ATOM     39  O1  UNK     0      -5.139  -4.661   0.849  0.00  0.00    +0.000 OA
ATOM     40  C14 UNK     0      -3.844  -4.328   0.390  0.00  0.00    +0.000 C 
ATOM     41  C17 UNK     0      -5.654  -3.977  -1.425  0.00  0.00    +0.000 C 
ENDBRANCH  36  38
ENDBRANCH  35  36
BRANCH  35  42
ATOM     42  C18 UNK     0      -6.380  -0.051  -0.096  0.00  0.00    +0.000 C 
BRANCH  42  43
ATOM     43  C19 UNK     0      -7.671  -0.651  -0.710  0.00  0.00    +0.000 C 
ATOM     44  C23 UNK     0      -7.602  -0.703  -2.243  0.00  0.00    +0.000 C 
ATOM     45  C22 UNK     0      -8.891   0.175  -0.280  0.00  0.00    +0.000 C 
ENDBRANCH  42  43
ENDBRANCH  35  42
ENDBRANCH  32  35
ENDBRANCH  30  31
BRANCH  30  46
ATOM     46  C24 UNK     0      -2.794   2.885   0.906  0.00  0.00    +0.000 C 
BRANCH  46  47
ATOM     47  C29 UNK     0      -3.920   2.623   1.879  0.00  0.00    +0.000 A 
ATOM     48  C37 UNK     0      -5.238   2.980   1.552  0.00  0.00    +0.000 A 
ATOM     49  C45 UNK     0      -6.288   2.690   2.428  0.00  0.00    +0.000 A 
ATOM     50  C47 UNK     0      -6.032   2.034   3.635  0.00  0.00    +0.000 A 
ATOM     51  C46 UNK     0      -4.722   1.683   3.973  0.00  0.00    +0.000 A 
ATOM     52  C38 UNK     0      -3.669   1.977   3.101  0.00  0.00    +0.000 A 
ENDBRANCH  46  47
ENDBRANCH  30  46
ENDBRANCH  27  30
ENDBRANCH   1  26
BRANCH   1  53
ATOM     53  C26 UNK     0       0.836   1.091  -3.162  0.00  0.00    +0.000 C 
BRANCH  53  54
ATOM     54  C28 UNK     0       0.435  -0.393  -3.413  0.00  0.00    +0.000 C 
ATOM     55  C33 UNK     0      -1.022  -0.708  -3.029  0.00  0.00    +0.000 C 
ATOM     56  C34 UNK     0       1.406  -1.413  -2.806  0.00  0.00    +0.000 C 
ENDBRANCH  53  54
ENDBRANCH   1  53
TORSDOF 20
