REMARK  Name = C:\Users\Maximilian\Desktop\Conformers\converted_pdb\conformers_pdb\TAK_242_conf_28.pdb
REMARK  25 active torsions:
REMARK  status: ('A' for Active; 'I' for Inactive)
REMARK    1  A    between atoms: C25_1  and  N10_2
REMARK    2  A    between atoms: C25_1  and  C27_26
REMARK    3  A    between atoms: C25_1  and  C26_53
REMARK    4  A    between atoms: C31_4  and  C30_6
REMARK    5  A    between atoms: C30_6  and  C32_7
REMARK    6  A    between atoms: C30_6  and  N11_15
REMARK    7  A    between atoms: C32_7  and  C35_8
REMARK    8  A    between atoms: C35_8  and  C44_9
REMARK    9  A    between atoms: C41_16  and  C36_19
REMARK   10  A    between atoms: C36_19  and  N12_20
REMARK   11  A    between atoms: N9_27  and  C21_30
REMARK   12  A    between atoms: C21_30  and  C24_31
REMARK   13  A    between atoms: C21_30  and  C20_38
REMARK   14  A    between atoms: C24_31  and  C29_32
REMARK   15  A    between atoms: N8_39  and  C15_42
REMARK   16  A    between atoms: C15_42  and  C18_43
REMARK   17  A    between atoms: C15_42  and  C16_47
REMARK   18  A    between atoms: C18_43  and  C19_44
REMARK   19  A    between atoms: C19_44  and  C23_45
REMARK   20  A    between atoms: C19_44  and  C22_46
REMARK   21  A    between atoms: C16_47  and  C13_49
REMARK   22  A    between atoms: C13_49  and  C17_52
REMARK   23  A    between atoms: C26_53  and  C28_54
REMARK   24  A    between atoms: C28_54  and  C33_55
REMARK   25  A    between atoms: C28_54  and  C34_56
REMARK                            x       y       z     vdW  Elec       q    Type
REMARK                         _______ _______ _______ _____ _____    ______ ____
ROOT
ATOM      1  C25 UNK     0       0.789   1.090  -1.900  0.00  0.00    +0.000 C 
ENDROOT
BRANCH   1   2
ATOM      2  N10 UNK     0      -0.666   1.187  -2.098  0.00  0.00    +0.000 N 
ATOM      3  H77 UNK     0      -1.037   0.900  -3.033  0.00  0.00    +0.000 HD
ATOM      4  C31 UNK     0      -1.621   1.539  -1.080  0.00  0.00    +0.000 C 
ATOM      5  O6  UNK     0      -1.235   1.997   0.030  0.00  0.00    +0.000 OA
BRANCH   4   6
ATOM      6  C30 UNK     0      -3.097   1.378  -1.351  0.00  0.00    +0.000 C 
BRANCH   6   7
ATOM      7  N11 UNK     0      -3.833   1.325  -0.082  0.00  0.00    +0.000 N 
ATOM      8  C41 UNK     0      -3.859   0.145   0.734  0.00  0.00    +0.000 C 
ATOM      9  O7  UNK     0      -3.253  -0.894   0.354  0.00  0.00    +0.000 OA
ATOM     10  H87 UNK     0      -4.217   2.211   0.317  0.00  0.00    +0.000 HD
BRANCH   8  11
ATOM     11  C36 UNK     0      -4.521   0.202   2.091  0.00  0.00    +0.000 C 
BRANCH  11  12
ATOM     12  N12 UNK     0      -5.116  -1.069   2.560  0.00  0.00    +0.000 NA
ATOM     13  C39 UNK     0      -6.066  -1.675   1.612  0.00  0.00    +0.000 C 
ATOM     14  C42 UNK     0      -6.709  -2.906   2.263  0.00  0.00    +0.000 C 
ATOM     15  O5  UNK     0      -5.720  -3.839   2.660  0.00  0.00    +0.000 OA
ATOM     16  C43 UNK     0      -4.868  -3.257   3.630  0.00  0.00    +0.000 C 
ATOM     17  C40 UNK     0      -4.130  -2.049   3.047  0.00  0.00    +0.000 C 
ENDBRANCH  11  12
ENDBRANCH   8  11
ENDBRANCH   6   7
BRANCH   6  18
ATOM     18  C32 UNK     0      -3.599   2.540  -2.233  0.00  0.00    +0.000 C 
BRANCH  18  19
ATOM     19  C35 UNK     0      -4.993   2.291  -2.835  0.00  0.00    +0.000 C 
BRANCH  19  20
ATOM     20  C44 UNK     0      -6.097   2.397  -1.814  0.00  0.00    +0.000 A 
ATOM     21  C49 UNK     0      -6.755   1.245  -1.349  0.00  0.00    +0.000 A 
ATOM     22  C51 UNK     0      -7.772   1.354  -0.394  0.00  0.00    +0.000 A 
ATOM     23  C52 UNK     0      -8.129   2.605   0.113  0.00  0.00    +0.000 A 
ATOM     24  C50 UNK     0      -7.488   3.755  -0.351  0.00  0.00    +0.000 A 
ATOM     25  C48 UNK     0      -6.474   3.654  -1.309  0.00  0.00    +0.000 A 
ENDBRANCH  19  20
ENDBRANCH  18  19
ENDBRANCH   6  18
ENDBRANCH   4   6
ENDBRANCH   1   2
BRANCH   1  26
ATOM     26  C27 UNK     0       1.140  -0.027  -0.947  0.00  0.00    +0.000 C 
ATOM     27  N9  UNK     0       2.449  -0.609  -0.997  0.00  0.00    +0.000 N 
ATOM     28  H73 UNK     0       3.164  -0.170  -1.620  0.00  0.00    +0.000 HD
ATOM     29  O4  UNK     0       0.297  -0.442  -0.106  0.00  0.00    +0.000 OA
BRANCH  27  30
ATOM     30  C21 UNK     0       2.842  -1.756  -0.176  0.00  0.00    +0.000 C 
BRANCH  30  31
ATOM     31  C20 UNK     0       3.633  -1.275   1.010  0.00  0.00    +0.000 C 
ATOM     32  N8  UNK     0       4.799  -0.453   0.820  0.00  0.00    +0.000 N 
ATOM     33  H62 UNK     0       5.095  -0.254  -0.162  0.00  0.00    +0.000 HD
ATOM     34  O3  UNK     0       3.237  -1.568   2.165  0.00  0.00    +0.000 OA
BRANCH  32  35
ATOM     35  C15 UNK     0       5.660   0.084   1.886  0.00  0.00    +0.000 C 
BRANCH  35  36
ATOM     36  C16 UNK     0       5.049   1.279   2.600  0.00  0.00    +0.000 C 
ATOM     37  O2  UNK     0       5.796   2.039   3.201  0.00  0.00    +0.000 OA
BRANCH  36  38
ATOM     38  C13 UNK     0       3.568   1.547   2.670  0.00  0.00    +0.000 C 
ATOM     39  O1  UNK     0       2.881   1.541   1.439  0.00  0.00    +0.000 OA
ATOM     40  C14 UNK     0       3.113   2.804   2.022  0.00  0.00    +0.000 C 
ATOM     41  C17 UNK     0       2.757   1.087   3.879  0.00  0.00    +0.000 C 
ENDBRANCH  36  38
ENDBRANCH  35  36
BRANCH  35  42
ATOM     42  C18 UNK     0       6.121  -0.993   2.896  0.00  0.00    +0.000 C 
BRANCH  42  43
ATOM     43  C19 UNK     0       6.735  -2.256   2.243  0.00  0.00    +0.000 C 
ATOM     44  C23 UNK     0       7.013  -3.313   3.319  0.00  0.00    +0.000 C 
ATOM     45  C22 UNK     0       8.030  -1.938   1.480  0.00  0.00    +0.000 C 
ENDBRANCH  42  43
ENDBRANCH  35  42
ENDBRANCH  32  35
ENDBRANCH  30  31
BRANCH  30  46
ATOM     46  C24 UNK     0       3.660  -2.758  -1.009  0.00  0.00    +0.000 C 
BRANCH  46  47
ATOM     47  C29 UNK     0       2.865  -3.248  -2.195  0.00  0.00    +0.000 A 
ATOM     48  C37 UNK     0       1.945  -4.299  -2.044  0.00  0.00    +0.000 A 
ATOM     49  C45 UNK     0       1.156  -4.706  -3.124  0.00  0.00    +0.000 A 
ATOM     50  C47 UNK     0       1.277  -4.063  -4.359  0.00  0.00    +0.000 A 
ATOM     51  C46 UNK     0       2.188  -3.015  -4.520  0.00  0.00    +0.000 A 
ATOM     52  C38 UNK     0       2.978  -2.606  -3.441  0.00  0.00    +0.000 A 
ENDBRANCH  46  47
ENDBRANCH  30  46
ENDBRANCH  27  30
ENDBRANCH   1  26
BRANCH   1  53
ATOM     53  C26 UNK     0       1.431   2.424  -1.444  0.00  0.00    +0.000 C 
BRANCH  53  54
ATOM     54  C28 UNK     0       1.382   3.591  -2.462  0.00  0.00    +0.000 C 
ATOM     55  C33 UNK     0      -0.029   4.152  -2.675  0.00  0.00    +0.000 C 
ATOM     56  C34 UNK     0       2.043   3.239  -3.801  0.00  0.00    +0.000 C 
ENDBRANCH  53  54
ENDBRANCH   1  53
TORSDOF 20
