REMARK  Name = C:\Users\Maximilian\Desktop\Conformers\converted_pdb\conformers_pdb\TAK_242_conf_47.pdb
REMARK  25 active torsions:
REMARK  status: ('A' for Active; 'I' for Inactive)
REMARK    1  A    between atoms: C25_1  and  N10_2
REMARK    2  A    between atoms: C25_1  and  C27_26
REMARK    3  A    between atoms: C25_1  and  C26_53
REMARK    4  A    between atoms: C31_4  and  C30_6
REMARK    5  A    between atoms: C30_6  and  C32_7
REMARK    6  A    between atoms: C30_6  and  N11_15
REMARK    7  A    between atoms: C32_7  and  C35_8
REMARK    8  A    between atoms: C35_8  and  C44_9
REMARK    9  A    between atoms: C41_16  and  C36_19
REMARK   10  A    between atoms: C36_19  and  N12_20
REMARK   11  A    between atoms: N9_27  and  C21_30
REMARK   12  A    between atoms: C21_30  and  C24_31
REMARK   13  A    between atoms: C21_30  and  C20_38
REMARK   14  A    between atoms: C24_31  and  C29_32
REMARK   15  A    between atoms: N8_39  and  C15_42
REMARK   16  A    between atoms: C15_42  and  C18_43
REMARK   17  A    between atoms: C15_42  and  C16_47
REMARK   18  A    between atoms: C18_43  and  C19_44
REMARK   19  A    between atoms: C19_44  and  C23_45
REMARK   20  A    between atoms: C19_44  and  C22_46
REMARK   21  A    between atoms: C16_47  and  C13_49
REMARK   22  A    between atoms: C13_49  and  C17_52
REMARK   23  A    between atoms: C26_53  and  C28_54
REMARK   24  A    between atoms: C28_54  and  C33_55
REMARK   25  A    between atoms: C28_54  and  C34_56
REMARK                            x       y       z     vdW  Elec       q    Type
REMARK                         _______ _______ _______ _____ _____    ______ ____
ROOT
ATOM      1  C25 UNK     0       0.894   1.805  -1.868  0.00  0.00    +0.000 C 
ENDROOT
BRANCH   1   2
ATOM      2  N10 UNK     0       2.205   1.170  -1.695  0.00  0.00    +0.000 N 
ATOM      3  H77 UNK     0       2.699   0.782  -2.534  0.00  0.00    +0.000 HD
ATOM      4  C31 UNK     0       2.787   0.939  -0.402  0.00  0.00    +0.000 C 
ATOM      5  O6  UNK     0       2.245   1.417   0.633  0.00  0.00    +0.000 OA
BRANCH   4   6
ATOM      6  C30 UNK     0       4.007   0.057  -0.291  0.00  0.00    +0.000 C 
BRANCH   6   7
ATOM      7  N11 UNK     0       4.784   0.325   0.927  0.00  0.00    +0.000 N 
ATOM      8  C41 UNK     0       6.196   0.066   0.997  0.00  0.00    +0.000 C 
ATOM      9  O7  UNK     0       6.820  -0.307  -0.036  0.00  0.00    +0.000 OA
ATOM     10  H87 UNK     0       4.281   0.572   1.809  0.00  0.00    +0.000 HD
BRANCH   8  11
ATOM     11  C36 UNK     0       6.934   0.202   2.310  0.00  0.00    +0.000 C 
BRANCH  11  12
ATOM     12  N12 UNK     0       8.065   1.159   2.261  0.00  0.00    +0.000 NA
ATOM     13  C39 UNK     0       7.699   2.475   1.702  0.00  0.00    +0.000 C 
ATOM     14  C42 UNK     0       8.890   3.449   1.854  0.00  0.00    +0.000 C 
ATOM     15  O5  UNK     0      10.176   2.834   1.815  0.00  0.00    +0.000 OA
ATOM     16  C43 UNK     0      10.168   1.674   1.006  0.00  0.00    +0.000 C 
ATOM     17  C40 UNK     0       9.291   0.587   1.655  0.00  0.00    +0.000 C 
ENDBRANCH  11  12
ENDBRANCH   8  11
ENDBRANCH   6   7
BRANCH   6  18
ATOM     18  C32 UNK     0       3.623  -1.430  -0.375  0.00  0.00    +0.000 C 
BRANCH  18  19
ATOM     19  C35 UNK     0       2.745  -1.897   0.797  0.00  0.00    +0.000 C 
BRANCH  19  20
ATOM     20  C44 UNK     0       2.468  -3.368   0.671  0.00  0.00    +0.000 A 
ATOM     21  C49 UNK     0       3.425  -4.300   1.107  0.00  0.00    +0.000 A 
ATOM     22  C51 UNK     0       3.207  -5.669   0.935  0.00  0.00    +0.000 A 
ATOM     23  C52 UNK     0       2.019  -6.118   0.347  0.00  0.00    +0.000 A 
ATOM     24  C50 UNK     0       1.055  -5.200  -0.078  0.00  0.00    +0.000 A 
ATOM     25  C48 UNK     0       1.285  -3.827   0.067  0.00  0.00    +0.000 A 
ENDBRANCH  19  20
ENDBRANCH  18  19
ENDBRANCH   6  18
ENDBRANCH   4   6
ENDBRANCH   1   2
BRANCH   1  26
ATOM     26  C27 UNK     0      -0.161   0.864  -1.339  0.00  0.00    +0.000 C 
ATOM     27  N9  UNK     0      -0.888   1.198  -0.147  0.00  0.00    +0.000 N 
ATOM     28  H73 UNK     0      -0.852   2.189   0.175  0.00  0.00    +0.000 HD
ATOM     29  O4  UNK     0      -0.361  -0.244  -1.912  0.00  0.00    +0.000 OA
BRANCH  27  30
ATOM     30  C21 UNK     0      -1.789   0.252   0.523  0.00  0.00    +0.000 C 
BRANCH  30  31
ATOM     31  C20 UNK     0      -3.161   0.282  -0.100  0.00  0.00    +0.000 C 
ATOM     32  N8  UNK     0      -4.067  -0.807   0.131  0.00  0.00    +0.000 N 
ATOM     33  H62 UNK     0      -3.758  -1.595   0.744  0.00  0.00    +0.000 HD
ATOM     34  O3  UNK     0      -3.528   1.279  -0.777  0.00  0.00    +0.000 OA
BRANCH  32  35
ATOM     35  C15 UNK     0      -5.368  -0.891  -0.536  0.00  0.00    +0.000 C 
BRANCH  35  36
ATOM     36  C16 UNK     0      -5.219  -1.704  -1.807  0.00  0.00    +0.000 C 
ATOM     37  O2  UNK     0      -5.522  -1.189  -2.873  0.00  0.00    +0.000 OA
BRANCH  36  38
ATOM     38  C13 UNK     0      -4.615  -3.088  -1.822  0.00  0.00    +0.000 C 
ATOM     39  O1  UNK     0      -5.188  -3.902  -2.820  0.00  0.00    +0.000 OA
ATOM     40  C14 UNK     0      -5.479  -4.243  -1.486  0.00  0.00    +0.000 C 
ATOM     41  C17 UNK     0      -3.091  -3.256  -1.759  0.00  0.00    +0.000 C 
ENDBRANCH  36  38
ENDBRANCH  35  36
BRANCH  35  42
ATOM     42  C18 UNK     0      -6.425  -1.446   0.449  0.00  0.00    +0.000 C 
BRANCH  42  43
ATOM     43  C19 UNK     0      -7.873  -0.963   0.170  0.00  0.00    +0.000 C 
ATOM     44  C23 UNK     0      -8.779  -1.269   1.377  0.00  0.00    +0.000 C 
ATOM     45  C22 UNK     0      -8.483  -1.607  -1.080  0.00  0.00    +0.000 C 
ENDBRANCH  42  43
ENDBRANCH  35  42
ENDBRANCH  32  35
ENDBRANCH  30  31
BRANCH  30  46
ATOM     46  C24 UNK     0      -1.847   0.515   2.044  0.00  0.00    +0.000 C 
BRANCH  46  47
ATOM     47  C29 UNK     0      -2.519   1.821   2.413  0.00  0.00    +0.000 A 
ATOM     48  C37 UNK     0      -3.917   1.882   2.556  0.00  0.00    +0.000 A 
ATOM     49  C45 UNK     0      -4.543   3.094   2.861  0.00  0.00    +0.000 A 
ATOM     50  C47 UNK     0      -3.781   4.255   3.026  0.00  0.00    +0.000 A 
ATOM     51  C46 UNK     0      -2.390   4.198   2.911  0.00  0.00    +0.000 A 
ATOM     52  C38 UNK     0      -1.758   2.985   2.617  0.00  0.00    +0.000 A 
ENDBRANCH  46  47
ENDBRANCH  30  46
ENDBRANCH  27  30
ENDBRANCH   1  26
BRANCH   1  53
ATOM     53  C26 UNK     0       0.670   2.166  -3.361  0.00  0.00    +0.000 C 
BRANCH  53  54
ATOM     54  C28 UNK     0      -0.446   3.202  -3.657  0.00  0.00    +0.000 C 
ATOM     55  C33 UNK     0      -0.128   4.593  -3.085  0.00  0.00    +0.000 C 
ATOM     56  C34 UNK     0      -1.837   2.733  -3.213  0.00  0.00    +0.000 C 
ENDBRANCH  53  54
ENDBRANCH   1  53
TORSDOF 20
