REMARK  Name = C:\Users\Maximilian\Desktop\Conformers\converted_pdb\conformers_pdb\TAK_242_conf_92.pdb
REMARK  25 active torsions:
REMARK  status: ('A' for Active; 'I' for Inactive)
REMARK    1  A    between atoms: C25_1  and  N10_2
REMARK    2  A    between atoms: C25_1  and  C27_26
REMARK    3  A    between atoms: C25_1  and  C26_53
REMARK    4  A    between atoms: C31_4  and  C30_6
REMARK    5  A    between atoms: C30_6  and  C32_7
REMARK    6  A    between atoms: C30_6  and  N11_15
REMARK    7  A    between atoms: C32_7  and  C35_8
REMARK    8  A    between atoms: C35_8  and  C44_9
REMARK    9  A    between atoms: C41_16  and  C36_19
REMARK   10  A    between atoms: C36_19  and  N12_20
REMARK   11  A    between atoms: N9_27  and  C21_30
REMARK   12  A    between atoms: C21_30  and  C24_31
REMARK   13  A    between atoms: C21_30  and  C20_38
REMARK   14  A    between atoms: C24_31  and  C29_32
REMARK   15  A    between atoms: N8_39  and  C15_42
REMARK   16  A    between atoms: C15_42  and  C18_43
REMARK   17  A    between atoms: C15_42  and  C16_47
REMARK   18  A    between atoms: C18_43  and  C19_44
REMARK   19  A    between atoms: C19_44  and  C23_45
REMARK   20  A    between atoms: C19_44  and  C22_46
REMARK   21  A    between atoms: C16_47  and  C13_49
REMARK   22  A    between atoms: C13_49  and  C17_52
REMARK   23  A    between atoms: C26_53  and  C28_54
REMARK   24  A    between atoms: C28_54  and  C33_55
REMARK   25  A    between atoms: C28_54  and  C34_56
REMARK                            x       y       z     vdW  Elec       q    Type
REMARK                         _______ _______ _______ _____ _____    ______ ____
ROOT
ATOM      1  C25 UNK     0       0.575   0.925   0.713  0.00  0.00    +0.000 C 
ENDROOT
BRANCH   1   2
ATOM      2  N10 UNK     0       1.940   0.682   0.226  0.00  0.00    +0.000 N 
ATOM      3  H77 UNK     0       2.498   1.493  -0.142  0.00  0.00    +0.000 HD
ATOM      4  C31 UNK     0       2.514  -0.639   0.205  0.00  0.00    +0.000 C 
ATOM      5  O6  UNK     0       1.803  -1.634   0.521  0.00  0.00    +0.000 OA
BRANCH   4   6
ATOM      6  C30 UNK     0       3.932  -0.859  -0.281  0.00  0.00    +0.000 C 
BRANCH   6   7
ATOM      7  N11 UNK     0       4.755   0.336  -0.057  0.00  0.00    +0.000 N 
ATOM      8  C41 UNK     0       5.158   1.221  -1.113  0.00  0.00    +0.000 C 
ATOM      9  O7  UNK     0       4.740   1.049  -2.291  0.00  0.00    +0.000 OA
ATOM     10  H87 UNK     0       4.967   0.624   0.923  0.00  0.00    +0.000 HD
BRANCH   8  11
ATOM     11  C36 UNK     0       6.011   2.414  -0.792  0.00  0.00    +0.000 C 
BRANCH  11  12
ATOM     12  N12 UNK     0       6.824   2.813  -1.963  0.00  0.00    +0.000 NA
ATOM     13  C39 UNK     0       7.996   1.924  -2.160  0.00  0.00    +0.000 C 
ATOM     14  C42 UNK     0       9.276   2.476  -1.500  0.00  0.00    +0.000 C 
ATOM     15  O5  UNK     0       8.948   3.275  -0.382  0.00  0.00    +0.000 OA
ATOM     16  C43 UNK     0       8.313   4.469  -0.806  0.00  0.00    +0.000 C 
ATOM     17  C40 UNK     0       7.232   4.231  -1.890  0.00  0.00    +0.000 C 
ENDBRANCH  11  12
ENDBRANCH   8  11
ENDBRANCH   6   7
BRANCH   6  18
ATOM     18  C32 UNK     0       4.609  -2.101   0.352  0.00  0.00    +0.000 C 
BRANCH  18  19
ATOM     19  C35 UNK     0       4.774  -2.022   1.881  0.00  0.00    +0.000 C 
BRANCH  19  20
ATOM     20  C44 UNK     0       5.282  -3.326   2.439  0.00  0.00    +0.000 A 
ATOM     21  C49 UNK     0       4.376  -4.302   2.887  0.00  0.00    +0.000 A 
ATOM     22  C51 UNK     0       4.845  -5.519   3.387  0.00  0.00    +0.000 A 
ATOM     23  C52 UNK     0       6.217  -5.777   3.441  0.00  0.00    +0.000 A 
ATOM     24  C50 UNK     0       7.124  -4.817   2.984  0.00  0.00    +0.000 A 
ATOM     25  C48 UNK     0       6.661  -3.595   2.482  0.00  0.00    +0.000 A 
ENDBRANCH  19  20
ENDBRANCH  18  19
ENDBRANCH   6  18
ENDBRANCH   4   6
ENDBRANCH   1   2
BRANCH   1  26
ATOM     26  C27 UNK     0      -0.417   0.403  -0.298  0.00  0.00    +0.000 C 
ATOM     27  N9  UNK     0      -1.467  -0.489   0.114  0.00  0.00    +0.000 N 
ATOM     28  H73 UNK     0      -1.623  -0.622   1.138  0.00  0.00    +0.000 HD
ATOM     29  O4  UNK     0      -0.332   0.774  -1.501  0.00  0.00    +0.000 OA
BRANCH  27  30
ATOM     30  C21 UNK     0      -2.432  -1.068  -0.827  0.00  0.00    +0.000 C 
BRANCH  30  31
ATOM     31  C20 UNK     0      -3.752  -0.340  -0.750  0.00  0.00    +0.000 C 
ATOM     32  N8  UNK     0      -4.785  -0.632  -1.711  0.00  0.00    +0.000 N 
ATOM     33  H62 UNK     0      -4.577  -1.351  -2.439  0.00  0.00    +0.000 HD
ATOM     34  O3  UNK     0      -3.936   0.522   0.152  0.00  0.00    +0.000 OA
BRANCH  32  35
ATOM     35  C15 UNK     0      -6.120  -0.016  -1.756  0.00  0.00    +0.000 C 
BRANCH  35  36
ATOM     36  C16 UNK     0      -6.939  -0.411  -0.537  0.00  0.00    +0.000 C 
ATOM     37  O2  UNK     0      -6.504  -0.154   0.577  0.00  0.00    +0.000 OA
BRANCH  36  38
ATOM     38  C13 UNK     0      -8.299  -1.082  -0.658  0.00  0.00    +0.000 C 
ATOM     39  O1  UNK     0      -9.171  -0.689   0.376  0.00  0.00    +0.000 OA
ATOM     40  C14 UNK     0      -8.706  -2.022   0.415  0.00  0.00    +0.000 C 
ATOM     41  C17 UNK     0      -9.031  -1.180  -2.001  0.00  0.00    +0.000 C 
ENDBRANCH  36  38
ENDBRANCH  35  36
BRANCH  35  42
ATOM     42  C18 UNK     0      -6.057   1.526  -1.903  0.00  0.00    +0.000 C 
BRANCH  42  43
ATOM     43  C19 UNK     0      -5.644   2.015  -3.316  0.00  0.00    +0.000 C 
ATOM     44  C23 UNK     0      -4.161   1.744  -3.618  0.00  0.00    +0.000 C 
ATOM     45  C22 UNK     0      -5.932   3.519  -3.458  0.00  0.00    +0.000 C 
ENDBRANCH  42  43
ENDBRANCH  35  42
ENDBRANCH  32  35
ENDBRANCH  30  31
BRANCH  30  46
ATOM     46  C24 UNK     0      -2.582  -2.586  -0.586  0.00  0.00    +0.000 C 
BRANCH  46  47
ATOM     47  C29 UNK     0      -3.201  -2.927   0.748  0.00  0.00    +0.000 A 
ATOM     48  C37 UNK     0      -4.596  -3.064   0.873  0.00  0.00    +0.000 A 
ATOM     49  C45 UNK     0      -5.166  -3.367   2.115  0.00  0.00    +0.000 A 
ATOM     50  C47 UNK     0      -4.351  -3.535   3.237  0.00  0.00    +0.000 A 
ATOM     51  C46 UNK     0      -2.965  -3.399   3.123  0.00  0.00    +0.000 A 
ATOM     52  C38 UNK     0      -2.391  -3.106   1.882  0.00  0.00    +0.000 A 
ENDBRANCH  46  47
ENDBRANCH  30  46
ENDBRANCH  27  30
ENDBRANCH   1  26
BRANCH   1  53
ATOM     53  C26 UNK     0       0.358   2.436   0.966  0.00  0.00    +0.000 C 
BRANCH  53  54
ATOM     54  C28 UNK     0      -1.036   2.792   1.540  0.00  0.00    +0.000 C 
ATOM     55  C33 UNK     0      -1.225   4.316   1.548  0.00  0.00    +0.000 C 
ATOM     56  C34 UNK     0      -1.233   2.233   2.957  0.00  0.00    +0.000 C 
ENDBRANCH  53  54
ENDBRANCH   1  53
TORSDOF 20
