REMARK  Name = C:\Users\Maximilian\Desktop\Conformers\converted_pdb\conformers_pdb\TAK_242_conf_43.pdb
REMARK  25 active torsions:
REMARK  status: ('A' for Active; 'I' for Inactive)
REMARK    1  A    between atoms: C25_1  and  N10_2
REMARK    2  A    between atoms: C25_1  and  C27_26
REMARK    3  A    between atoms: C25_1  and  C26_53
REMARK    4  A    between atoms: C31_4  and  C30_6
REMARK    5  A    between atoms: C30_6  and  C32_7
REMARK    6  A    between atoms: C30_6  and  N11_15
REMARK    7  A    between atoms: C32_7  and  C35_8
REMARK    8  A    between atoms: C35_8  and  C44_9
REMARK    9  A    between atoms: C41_16  and  C36_19
REMARK   10  A    between atoms: C36_19  and  N12_20
REMARK   11  A    between atoms: N9_27  and  C21_30
REMARK   12  A    between atoms: C21_30  and  C24_31
REMARK   13  A    between atoms: C21_30  and  C20_38
REMARK   14  A    between atoms: C24_31  and  C29_32
REMARK   15  A    between atoms: N8_39  and  C15_42
REMARK   16  A    between atoms: C15_42  and  C18_43
REMARK   17  A    between atoms: C15_42  and  C16_47
REMARK   18  A    between atoms: C18_43  and  C19_44
REMARK   19  A    between atoms: C19_44  and  C23_45
REMARK   20  A    between atoms: C19_44  and  C22_46
REMARK   21  A    between atoms: C16_47  and  C13_49
REMARK   22  A    between atoms: C13_49  and  C17_52
REMARK   23  A    between atoms: C26_53  and  C28_54
REMARK   24  A    between atoms: C28_54  and  C33_55
REMARK   25  A    between atoms: C28_54  and  C34_56
REMARK                            x       y       z     vdW  Elec       q    Type
REMARK                         _______ _______ _______ _____ _____    ______ ____
ROOT
ATOM      1  C25 UNK     0       1.518   0.272   0.737  0.00  0.00    +0.000 C 
ENDROOT
BRANCH   1   2
ATOM      2  N10 UNK     0       2.415   0.506  -0.404  0.00  0.00    +0.000 N 
ATOM      3  H77 UNK     0       2.637   1.486  -0.682  0.00  0.00    +0.000 HD
ATOM      4  C31 UNK     0       3.274  -0.520  -0.914  0.00  0.00    +0.000 C 
ATOM      5  O6  UNK     0       3.004  -1.734  -0.696  0.00  0.00    +0.000 OA
BRANCH   4   6
ATOM      6  C30 UNK     0       4.565  -0.140  -1.598  0.00  0.00    +0.000 C 
BRANCH   6   7
ATOM      7  N11 UNK     0       5.554   0.158  -0.563  0.00  0.00    +0.000 N 
ATOM      8  C41 UNK     0       5.663   1.475   0.010  0.00  0.00    +0.000 C 
ATOM      9  O7  UNK     0       5.305   2.477  -0.665  0.00  0.00    +0.000 OA
ATOM     10  H87 UNK     0       6.037  -0.650  -0.114  0.00  0.00    +0.000 HD
BRANCH   8  11
ATOM     11  C36 UNK     0       6.192   1.717   1.400  0.00  0.00    +0.000 C 
BRANCH  11  12
ATOM     12  N12 UNK     0       6.423   0.456   2.147  0.00  0.00    +0.000 NA
ATOM     13  C39 UNK     0       6.158   0.650   3.590  0.00  0.00    +0.000 C 
ATOM     14  C42 UNK     0       6.799  -0.467   4.426  0.00  0.00    +0.000 C 
ATOM     15  O5  UNK     0       8.211  -0.580   4.271  0.00  0.00    +0.000 OA
ATOM     16  C43 UNK     0       8.712   0.035   3.093  0.00  0.00    +0.000 C 
ATOM     17  C40 UNK     0       7.766  -0.123   1.885  0.00  0.00    +0.000 C 
ENDBRANCH  11  12
ENDBRANCH   8  11
ENDBRANCH   6   7
BRANCH   6  18
ATOM     18  C32 UNK     0       5.107  -1.232  -2.552  0.00  0.00    +0.000 C 
BRANCH  18  19
ATOM     19  C35 UNK     0       4.210  -1.455  -3.782  0.00  0.00    +0.000 C 
BRANCH  19  20
ATOM     20  C44 UNK     0       4.197  -0.253  -4.699  0.00  0.00    +0.000 A 
ATOM     21  C49 UNK     0       5.287  -0.014  -5.552  0.00  0.00    +0.000 A 
ATOM     22  C51 UNK     0       5.297   1.111  -6.378  0.00  0.00    +0.000 A 
ATOM     23  C52 UNK     0       4.217   1.997  -6.368  0.00  0.00    +0.000 A 
ATOM     24  C50 UNK     0       3.136   1.777  -5.504  0.00  0.00    +0.000 A 
ATOM     25  C48 UNK     0       3.117   0.648  -4.683  0.00  0.00    +0.000 A 
ENDBRANCH  19  20
ENDBRANCH  18  19
ENDBRANCH   6  18
ENDBRANCH   4   6
ENDBRANCH   1   2
BRANCH   1  26
ATOM     26  C27 UNK     0       0.180  -0.274   0.290  0.00  0.00    +0.000 C 
ATOM     27  N9  UNK     0      -0.741  -0.778   1.271  0.00  0.00    +0.000 N 
ATOM     28  H73 UNK     0      -0.462  -0.711   2.280  0.00  0.00    +0.000 HD
ATOM     29  O4  UNK     0      -0.139  -0.261  -0.933  0.00  0.00    +0.000 OA
BRANCH  27  30
ATOM     30  C21 UNK     0      -2.010  -1.431   0.922  0.00  0.00    +0.000 C 
BRANCH  30  31
ATOM     31  C20 UNK     0      -3.032  -0.413   0.464  0.00  0.00    +0.000 C 
ATOM     32  N8  UNK     0      -4.228  -0.848  -0.210  0.00  0.00    +0.000 N 
ATOM     33  H62 UNK     0      -4.377  -1.870  -0.350  0.00  0.00    +0.000 HD
ATOM     34  O3  UNK     0      -2.827   0.821   0.659  0.00  0.00    +0.000 OA
BRANCH  32  35
ATOM     35  C15 UNK     0      -5.285   0.071  -0.655  0.00  0.00    +0.000 C 
BRANCH  35  36
ATOM     36  C16 UNK     0      -5.635  -0.228  -2.102  0.00  0.00    +0.000 C 
ATOM     37  O2  UNK     0      -4.811  -0.781  -2.813  0.00  0.00    +0.000 OA
BRANCH  36  38
ATOM     38  C13 UNK     0      -6.902   0.284  -2.737  0.00  0.00    +0.000 C 
ATOM     39  O1  UNK     0      -8.050  -0.422  -2.317  0.00  0.00    +0.000 OA
ATOM     40  C14 UNK     0      -7.646  -0.621  -3.654  0.00  0.00    +0.000 C 
ATOM     41  C17 UNK     0      -7.143   1.784  -2.860  0.00  0.00    +0.000 C 
ENDBRANCH  36  38
ENDBRANCH  35  36
BRANCH  35  42
ATOM     42  C18 UNK     0      -6.517  -0.066   0.275  0.00  0.00    +0.000 C 
BRANCH  42  43
ATOM     43  C19 UNK     0      -6.229   0.330   1.742  0.00  0.00    +0.000 C 
ATOM     44  C23 UNK     0      -7.369  -0.149   2.651  0.00  0.00    +0.000 C 
ATOM     45  C22 UNK     0      -6.040   1.846   1.901  0.00  0.00    +0.000 C 
ENDBRANCH  42  43
ENDBRANCH  35  42
ENDBRANCH  32  35
ENDBRANCH  30  31
BRANCH  30  46
ATOM     46  C24 UNK     0      -2.526  -2.241   2.140  0.00  0.00    +0.000 C 
BRANCH  46  47
ATOM     47  C29 UNK     0      -3.531  -3.308   1.773  0.00  0.00    +0.000 A 
ATOM     48  C37 UNK     0      -3.141  -4.413   0.996  0.00  0.00    +0.000 A 
ATOM     49  C45 UNK     0      -4.067  -5.410   0.672  0.00  0.00    +0.000 A 
ATOM     50  C47 UNK     0      -5.387  -5.317   1.121  0.00  0.00    +0.000 A 
ATOM     51  C46 UNK     0      -5.780  -4.225   1.902  0.00  0.00    +0.000 A 
ATOM     52  C38 UNK     0      -4.857  -3.228   2.232  0.00  0.00    +0.000 A 
ENDBRANCH  46  47
ENDBRANCH  30  46
ENDBRANCH  27  30
ENDBRANCH   1  26
BRANCH   1  53
ATOM     53  C26 UNK     0       1.396   1.535   1.635  0.00  0.00    +0.000 C 
BRANCH  53  54
ATOM     54  C28 UNK     0       0.356   2.606   1.201  0.00  0.00    +0.000 C 
ATOM     55  C33 UNK     0       0.677   3.252  -0.155  0.00  0.00    +0.000 C 
ATOM     56  C34 UNK     0       0.281   3.697   2.280  0.00  0.00    +0.000 C 
ENDBRANCH  53  54
ENDBRANCH   1  53
TORSDOF 20
