REMARK  Name = C:\Users\Maximilian\Desktop\Conformers\converted_pdb\conformers_pdb\TAK_242_conf_51.pdb
REMARK  25 active torsions:
REMARK  status: ('A' for Active; 'I' for Inactive)
REMARK    1  A    between atoms: C25_1  and  N10_2
REMARK    2  A    between atoms: C25_1  and  C27_26
REMARK    3  A    between atoms: C25_1  and  C26_53
REMARK    4  A    between atoms: C31_4  and  C30_6
REMARK    5  A    between atoms: C30_6  and  C32_7
REMARK    6  A    between atoms: C30_6  and  N11_15
REMARK    7  A    between atoms: C32_7  and  C35_8
REMARK    8  A    between atoms: C35_8  and  C44_9
REMARK    9  A    between atoms: C41_16  and  C36_19
REMARK   10  A    between atoms: C36_19  and  N12_20
REMARK   11  A    between atoms: N9_27  and  C21_30
REMARK   12  A    between atoms: C21_30  and  C24_31
REMARK   13  A    between atoms: C21_30  and  C20_38
REMARK   14  A    between atoms: C24_31  and  C29_32
REMARK   15  A    between atoms: N8_39  and  C15_42
REMARK   16  A    between atoms: C15_42  and  C18_43
REMARK   17  A    between atoms: C15_42  and  C16_47
REMARK   18  A    between atoms: C18_43  and  C19_44
REMARK   19  A    between atoms: C19_44  and  C23_45
REMARK   20  A    between atoms: C19_44  and  C22_46
REMARK   21  A    between atoms: C16_47  and  C13_49
REMARK   22  A    between atoms: C13_49  and  C17_52
REMARK   23  A    between atoms: C26_53  and  C28_54
REMARK   24  A    between atoms: C28_54  and  C33_55
REMARK   25  A    between atoms: C28_54  and  C34_56
REMARK                            x       y       z     vdW  Elec       q    Type
REMARK                         _______ _______ _______ _____ _____    ______ ____
ROOT
ATOM      1  C25 UNK     0      -0.351  -1.841   0.772  0.00  0.00    +0.000 C 
ENDROOT
BRANCH   1   2
ATOM      2  N10 UNK     0      -1.615  -1.133   1.014  0.00  0.00    +0.000 N 
ATOM      3  H77 UNK     0      -1.603  -0.107   1.214  0.00  0.00    +0.000 HD
ATOM      4  C31 UNK     0      -2.880  -1.811   1.069  0.00  0.00    +0.000 C 
ATOM      5  O6  UNK     0      -2.916  -3.072   1.052  0.00  0.00    +0.000 OA
BRANCH   4   6
ATOM      6  C30 UNK     0      -4.153  -1.012   1.230  0.00  0.00    +0.000 C 
BRANCH   6   7
ATOM      7  N11 UNK     0      -4.133   0.131   0.311  0.00  0.00    +0.000 N 
ATOM      8  C41 UNK     0      -3.974   1.487   0.755  0.00  0.00    +0.000 C 
ATOM      9  O7  UNK     0      -3.632   1.735   1.944  0.00  0.00    +0.000 OA
ATOM     10  H87 UNK     0      -4.241  -0.053  -0.713  0.00  0.00    +0.000 HD
BRANCH   8  11
ATOM     11  C36 UNK     0      -4.189   2.625  -0.200  0.00  0.00    +0.000 C 
BRANCH  11  12
ATOM     12  N12 UNK     0      -5.075   3.654   0.392  0.00  0.00    +0.000 NA
ATOM     13  C39 UNK     0      -5.049   4.914  -0.378  0.00  0.00    +0.000 C 
ATOM     14  C42 UNK     0      -5.899   4.817  -1.655  0.00  0.00    +0.000 C 
ATOM     15  O5  UNK     0      -7.232   4.464  -1.344  0.00  0.00    +0.000 OA
ATOM     16  C43 UNK     0      -7.257   3.188  -0.740  0.00  0.00    +0.000 C 
ATOM     17  C40 UNK     0      -6.467   3.187   0.579  0.00  0.00    +0.000 C 
ENDBRANCH  11  12
ENDBRANCH   8  11
ENDBRANCH   6   7
BRANCH   6  18
ATOM     18  C32 UNK     0      -5.412  -1.865   0.971  0.00  0.00    +0.000 C 
BRANCH  18  19
ATOM     19  C35 UNK     0      -6.700  -1.056   1.173  0.00  0.00    +0.000 C 
BRANCH  19  20
ATOM     20  C44 UNK     0      -7.910  -1.926   0.966  0.00  0.00    +0.000 A 
ATOM     21  C49 UNK     0      -8.449  -2.656   2.039  0.00  0.00    +0.000 A 
ATOM     22  C51 UNK     0      -9.548  -3.497   1.837  0.00  0.00    +0.000 A 
ATOM     23  C52 UNK     0     -10.114  -3.615   0.564  0.00  0.00    +0.000 A 
ATOM     24  C50 UNK     0      -9.577  -2.898  -0.509  0.00  0.00    +0.000 A 
ATOM     25  C48 UNK     0      -8.476  -2.059  -0.312  0.00  0.00    +0.000 A 
ENDBRANCH  19  20
ENDBRANCH  18  19
ENDBRANCH   6  18
ENDBRANCH   4   6
ENDBRANCH   1   2
BRANCH   1  26
ATOM     26  C27 UNK     0       0.844  -0.974   1.095  0.00  0.00    +0.000 C 
ATOM     27  N9  UNK     0       2.048  -1.580   1.592  0.00  0.00    +0.000 N 
ATOM     28  H73 UNK     0       2.015  -2.589   1.852  0.00  0.00    +0.000 HD
ATOM     29  O4  UNK     0       0.813   0.265   0.861  0.00  0.00    +0.000 OA
BRANCH  27  30
ATOM     30  C21 UNK     0       3.275  -0.803   1.812  0.00  0.00    +0.000 C 
BRANCH  30  31
ATOM     31  C20 UNK     0       3.815  -0.280   0.504  0.00  0.00    +0.000 C 
ATOM     32  N8  UNK     0       4.485   0.989   0.466  0.00  0.00    +0.000 N 
ATOM     33  H62 UNK     0       4.615   1.502   1.369  0.00  0.00    +0.000 HD
ATOM     34  O3  UNK     0       3.700  -0.972  -0.545  0.00  0.00    +0.000 OA
BRANCH  32  35
ATOM     35  C15 UNK     0       5.161   1.490  -0.737  0.00  0.00    +0.000 C 
BRANCH  35  36
ATOM     36  C16 UNK     0       5.050   3.001  -0.845  0.00  0.00    +0.000 C 
ATOM     37  O2  UNK     0       4.504   3.645   0.040  0.00  0.00    +0.000 OA
BRANCH  36  38
ATOM     38  C13 UNK     0       5.575   3.736  -2.050  0.00  0.00    +0.000 C 
ATOM     39  O1  UNK     0       4.543   4.437  -2.706  0.00  0.00    +0.000 OA
ATOM     40  C14 UNK     0       5.102   3.345  -3.402  0.00  0.00    +0.000 C 
ATOM     41  C17 UNK     0       6.844   4.578  -1.926  0.00  0.00    +0.000 C 
ENDBRANCH  36  38
ENDBRANCH  35  36
BRANCH  35  42
ATOM     42  C18 UNK     0       6.625   0.983  -0.801  0.00  0.00    +0.000 C 
BRANCH  42  43
ATOM     43  C19 UNK     0       7.418   1.024   0.533  0.00  0.00    +0.000 C 
ATOM     44  C23 UNK     0       7.681   2.454   1.022  0.00  0.00    +0.000 C 
ATOM     45  C22 UNK     0       8.755   0.291   0.360  0.00  0.00    +0.000 C 
ENDBRANCH  42  43
ENDBRANCH  35  42
ENDBRANCH  32  35
ENDBRANCH  30  31
BRANCH  30  46
ATOM     46  C24 UNK     0       4.343  -1.613   2.581  0.00  0.00    +0.000 C 
BRANCH  46  47
ATOM     47  C29 UNK     0       4.798  -2.867   1.867  0.00  0.00    +0.000 A 
ATOM     48  C37 UNK     0       5.794  -2.801   0.878  0.00  0.00    +0.000 A 
ATOM     49  C45 UNK     0       6.201  -3.956   0.204  0.00  0.00    +0.000 A 
ATOM     50  C47 UNK     0       5.629  -5.190   0.522  0.00  0.00    +0.000 A 
ATOM     51  C46 UNK     0       4.652  -5.271   1.517  0.00  0.00    +0.000 A 
ATOM     52  C38 UNK     0       4.236  -4.116   2.186  0.00  0.00    +0.000 A 
ENDBRANCH  46  47
ENDBRANCH  30  46
ENDBRANCH  27  30
ENDBRANCH   1  26
BRANCH   1  53
ATOM     53  C26 UNK     0      -0.270  -2.404  -0.668  0.00  0.00    +0.000 C 
BRANCH  53  54
ATOM     54  C28 UNK     0      -0.063  -1.366  -1.803  0.00  0.00    +0.000 C 
ATOM     55  C33 UNK     0      -1.273  -0.437  -1.980  0.00  0.00    +0.000 C 
ATOM     56  C34 UNK     0       0.223  -2.094  -3.124  0.00  0.00    +0.000 C 
ENDBRANCH  53  54
ENDBRANCH   1  53
TORSDOF 20
