REMARK  Name = C:\Users\Maximilian\Desktop\Conformers\converted_pdb\conformers_pdb\TAK_242_conf_70.pdb
REMARK  25 active torsions:
REMARK  status: ('A' for Active; 'I' for Inactive)
REMARK    1  A    between atoms: C25_1  and  N10_2
REMARK    2  A    between atoms: C25_1  and  C27_26
REMARK    3  A    between atoms: C25_1  and  C26_53
REMARK    4  A    between atoms: C31_4  and  C30_6
REMARK    5  A    between atoms: C30_6  and  C32_7
REMARK    6  A    between atoms: C30_6  and  N11_15
REMARK    7  A    between atoms: C32_7  and  C35_8
REMARK    8  A    between atoms: C35_8  and  C44_9
REMARK    9  A    between atoms: C41_16  and  C36_19
REMARK   10  A    between atoms: C36_19  and  N12_20
REMARK   11  A    between atoms: N9_27  and  C21_30
REMARK   12  A    between atoms: C21_30  and  C24_31
REMARK   13  A    between atoms: C21_30  and  C20_38
REMARK   14  A    between atoms: C24_31  and  C29_32
REMARK   15  A    between atoms: N8_39  and  C15_42
REMARK   16  A    between atoms: C15_42  and  C18_43
REMARK   17  A    between atoms: C15_42  and  C16_47
REMARK   18  A    between atoms: C18_43  and  C19_44
REMARK   19  A    between atoms: C19_44  and  C23_45
REMARK   20  A    between atoms: C19_44  and  C22_46
REMARK   21  A    between atoms: C16_47  and  C13_49
REMARK   22  A    between atoms: C13_49  and  C17_52
REMARK   23  A    between atoms: C26_53  and  C28_54
REMARK   24  A    between atoms: C28_54  and  C33_55
REMARK   25  A    between atoms: C28_54  and  C34_56
REMARK                            x       y       z     vdW  Elec       q    Type
REMARK                         _______ _______ _______ _____ _____    ______ ____
ROOT
ATOM      1  C25 UNK     0      -0.396  -0.271  -1.280  0.00  0.00    +0.000 C 
ENDROOT
BRANCH   1   2
ATOM      2  N10 UNK     0      -1.678   0.164  -0.705  0.00  0.00    +0.000 N 
ATOM      3  H77 UNK     0      -1.921  -0.218   0.237  0.00  0.00    +0.000 HD
ATOM      4  C31 UNK     0      -2.654   0.990  -1.370  0.00  0.00    +0.000 C 
ATOM      5  O6  UNK     0      -2.364   1.603  -2.433  0.00  0.00    +0.000 OA
BRANCH   4   6
ATOM      6  C30 UNK     0      -4.030   1.156  -0.782  0.00  0.00    +0.000 C 
BRANCH   6   7
ATOM      7  N11 UNK     0      -4.538  -0.147  -0.335  0.00  0.00    +0.000 N 
ATOM      8  C41 UNK     0      -5.045  -1.126  -1.252  0.00  0.00    +0.000 C 
ATOM      9  O7  UNK     0      -5.183  -0.844  -2.475  0.00  0.00    +0.000 OA
ATOM     10  H87 UNK     0      -4.430  -0.416   0.669  0.00  0.00    +0.000 HD
BRANCH   8  11
ATOM     11  C36 UNK     0      -5.399  -2.503  -0.771  0.00  0.00    +0.000 C 
BRANCH  11  12
ATOM     12  N12 UNK     0      -6.803  -2.823  -1.108  0.00  0.00    +0.000 NA
ATOM     13  C39 UNK     0      -7.049  -4.279  -1.075  0.00  0.00    +0.000 C 
ATOM     14  C42 UNK     0      -7.062  -4.832   0.371  0.00  0.00    +0.000 C 
ATOM     15  O5  UNK     0      -7.241  -3.828   1.357  0.00  0.00    +0.000 OA
ATOM     16  C43 UNK     0      -8.252  -2.928   0.953  0.00  0.00    +0.000 C 
ATOM     17  C40 UNK     0      -7.776  -2.096  -0.254  0.00  0.00    +0.000 C 
ENDBRANCH  11  12
ENDBRANCH   8  11
ENDBRANCH   6   7
BRANCH   6  18
ATOM     18  C32 UNK     0      -3.985   2.158   0.385  0.00  0.00    +0.000 C 
BRANCH  18  19
ATOM     19  C35 UNK     0      -5.390   2.461   0.926  0.00  0.00    +0.000 C 
BRANCH  19  20
ATOM     20  C44 UNK     0      -5.323   3.445   2.061  0.00  0.00    +0.000 A 
ATOM     21  C49 UNK     0      -5.532   4.814   1.829  0.00  0.00    +0.000 A 
ATOM     22  C51 UNK     0      -5.450   5.727   2.885  0.00  0.00    +0.000 A 
ATOM     23  C52 UNK     0      -5.161   5.279   4.177  0.00  0.00    +0.000 A 
ATOM     24  C50 UNK     0      -4.945   3.918   4.414  0.00  0.00    +0.000 A 
ATOM     25  C48 UNK     0      -5.017   3.005   3.360  0.00  0.00    +0.000 A 
ENDBRANCH  19  20
ENDBRANCH  18  19
ENDBRANCH   6  18
ENDBRANCH   4   6
ENDBRANCH   1   2
BRANCH   1  26
ATOM     26  C27 UNK     0       0.607   0.856  -1.298  0.00  0.00    +0.000 C 
ATOM     27  N9  UNK     0       1.970   0.601  -0.928  0.00  0.00    +0.000 N 
ATOM     28  H73 UNK     0       2.240  -0.381  -0.688  0.00  0.00    +0.000 HD
ATOM     29  O4  UNK     0       0.265   2.005  -1.685  0.00  0.00    +0.000 OA
BRANCH  27  30
ATOM     30  C21 UNK     0       2.967   1.671  -0.813  0.00  0.00    +0.000 C 
BRANCH  30  31
ATOM     31  C20 UNK     0       4.358   1.089  -0.894  0.00  0.00    +0.000 C 
ATOM     32  N8  UNK     0       4.816   0.156   0.097  0.00  0.00    +0.000 N 
ATOM     33  H62 UNK     0       4.119  -0.207   0.784  0.00  0.00    +0.000 HD
ATOM     34  O3  UNK     0       5.114   1.425  -1.847  0.00  0.00    +0.000 OA
BRANCH  32  35
ATOM     35  C15 UNK     0       6.155  -0.442   0.048  0.00  0.00    +0.000 C 
BRANCH  35  36
ATOM     36  C16 UNK     0       6.652  -0.780   1.448  0.00  0.00    +0.000 C 
ATOM     37  O2  UNK     0       7.838  -0.629   1.709  0.00  0.00    +0.000 OA
BRANCH  36  38
ATOM     38  C13 UNK     0       5.737  -1.271   2.541  0.00  0.00    +0.000 C 
ATOM     39  O1  UNK     0       6.221  -2.451   3.139  0.00  0.00    +0.000 OA
ATOM     40  C14 UNK     0       5.043  -2.573   2.374  0.00  0.00    +0.000 C 
ATOM     41  C17 UNK     0       5.223  -0.281   3.585  0.00  0.00    +0.000 C 
ENDBRANCH  36  38
ENDBRANCH  35  36
BRANCH  35  42
ATOM     42  C18 UNK     0       6.135  -1.660  -0.906  0.00  0.00    +0.000 C 
BRANCH  42  43
ATOM     43  C19 UNK     0       7.458  -2.462  -0.974  0.00  0.00    +0.000 C 
ATOM     44  C23 UNK     0       8.603  -1.623  -1.559  0.00  0.00    +0.000 C 
ATOM     45  C22 UNK     0       7.260  -3.726  -1.819  0.00  0.00    +0.000 C 
ENDBRANCH  42  43
ENDBRANCH  35  42
ENDBRANCH  32  35
ENDBRANCH  30  31
BRANCH  30  46
ATOM     46  C24 UNK     0       2.756   2.451   0.498  0.00  0.00    +0.000 C 
BRANCH  46  47
ATOM     47  C29 UNK     0       3.716   3.606   0.625  0.00  0.00    +0.000 A 
ATOM     48  C37 UNK     0       4.887   3.480   1.390  0.00  0.00    +0.000 A 
ATOM     49  C45 UNK     0       5.792   4.543   1.475  0.00  0.00    +0.000 A 
ATOM     50  C47 UNK     0       5.536   5.737   0.795  0.00  0.00    +0.000 A 
ATOM     51  C46 UNK     0       4.379   5.868   0.025  0.00  0.00    +0.000 A 
ATOM     52  C38 UNK     0       3.471   4.806  -0.064  0.00  0.00    +0.000 A 
ENDBRANCH  46  47
ENDBRANCH  30  46
ENDBRANCH  27  30
ENDBRANCH   1  26
BRANCH   1  53
ATOM     53  C26 UNK     0      -0.549  -0.901  -2.682  0.00  0.00    +0.000 C 
BRANCH  53  54
ATOM     54  C28 UNK     0      -1.546  -2.084  -2.733  0.00  0.00    +0.000 C 
ATOM     55  C33 UNK     0      -1.026  -3.309  -1.965  0.00  0.00    +0.000 C 
ATOM     56  C34 UNK     0      -1.837  -2.469  -4.190  0.00  0.00    +0.000 C 
ENDBRANCH  53  54
ENDBRANCH   1  53
TORSDOF 20
