REMARK  Name = C:\Users\Maximilian\Desktop\Conformers\converted_pdb\conformers_pdb\TAK_242_conf_88.pdb
REMARK  25 active torsions:
REMARK  status: ('A' for Active; 'I' for Inactive)
REMARK    1  A    between atoms: C25_1  and  N10_2
REMARK    2  A    between atoms: C25_1  and  C27_26
REMARK    3  A    between atoms: C25_1  and  C26_53
REMARK    4  A    between atoms: C31_4  and  C30_6
REMARK    5  A    between atoms: C30_6  and  C32_7
REMARK    6  A    between atoms: C30_6  and  N11_15
REMARK    7  A    between atoms: C32_7  and  C35_8
REMARK    8  A    between atoms: C35_8  and  C44_9
REMARK    9  A    between atoms: C41_16  and  C36_19
REMARK   10  A    between atoms: C36_19  and  N12_20
REMARK   11  A    between atoms: N9_27  and  C21_30
REMARK   12  A    between atoms: C21_30  and  C24_31
REMARK   13  A    between atoms: C21_30  and  C20_38
REMARK   14  A    between atoms: C24_31  and  C29_32
REMARK   15  A    between atoms: N8_39  and  C15_42
REMARK   16  A    between atoms: C15_42  and  C18_43
REMARK   17  A    between atoms: C15_42  and  C16_47
REMARK   18  A    between atoms: C18_43  and  C19_44
REMARK   19  A    between atoms: C19_44  and  C23_45
REMARK   20  A    between atoms: C19_44  and  C22_46
REMARK   21  A    between atoms: C16_47  and  C13_49
REMARK   22  A    between atoms: C13_49  and  C17_52
REMARK   23  A    between atoms: C26_53  and  C28_54
REMARK   24  A    between atoms: C28_54  and  C33_55
REMARK   25  A    between atoms: C28_54  and  C34_56
REMARK                            x       y       z     vdW  Elec       q    Type
REMARK                         _______ _______ _______ _____ _____    ______ ____
ROOT
ATOM      1  C25 UNK     0      -0.770   1.585   0.524  0.00  0.00    +0.000 C 
ENDROOT
BRANCH   1   2
ATOM      2  N10 UNK     0      -2.134   1.174   0.152  0.00  0.00    +0.000 N 
ATOM      3  H77 UNK     0      -2.264   0.354  -0.479  0.00  0.00    +0.000 HD
ATOM      4  C31 UNK     0      -3.288   1.974   0.467  0.00  0.00    +0.000 C 
ATOM      5  O6  UNK     0      -3.152   3.015   1.167  0.00  0.00    +0.000 OA
BRANCH   4   6
ATOM      6  C30 UNK     0      -4.642   1.663  -0.140  0.00  0.00    +0.000 C 
BRANCH   6   7
ATOM      7  N11 UNK     0      -4.768   0.236  -0.461  0.00  0.00    +0.000 N 
ATOM      8  C41 UNK     0      -4.718  -0.816   0.516  0.00  0.00    +0.000 C 
ATOM      9  O7  UNK     0      -4.575  -0.541   1.738  0.00  0.00    +0.000 OA
ATOM     10  H87 UNK     0      -4.845  -0.026  -1.470  0.00  0.00    +0.000 HD
BRANCH   8  11
ATOM     11  C36 UNK     0      -4.774  -2.257   0.070  0.00  0.00    +0.000 C 
BRANCH  11  12
ATOM     12  N12 UNK     0      -5.759  -3.088   0.798  0.00  0.00    +0.000 NA
ATOM     13  C39 UNK     0      -5.246  -3.601   2.085  0.00  0.00    +0.000 C 
ATOM     14  C42 UNK     0      -6.371  -4.266   2.898  0.00  0.00    +0.000 C 
ATOM     15  O5  UNK     0      -7.445  -4.632   2.055  0.00  0.00    +0.000 OA
ATOM     16  C43 UNK     0      -8.082  -3.471   1.547  0.00  0.00    +0.000 C 
ATOM     17  C40 UNK     0      -7.084  -2.461   0.943  0.00  0.00    +0.000 C 
ENDBRANCH  11  12
ENDBRANCH   8  11
ENDBRANCH   6   7
BRANCH   6  18
ATOM     18  C32 UNK     0      -5.807   2.137   0.762  0.00  0.00    +0.000 C 
BRANCH  18  19
ATOM     19  C35 UNK     0      -7.196   1.806   0.192  0.00  0.00    +0.000 C 
BRANCH  19  20
ATOM     20  C44 UNK     0      -7.472   2.563  -1.078  0.00  0.00    +0.000 A 
ATOM     21  C49 UNK     0      -7.835   3.918  -1.022  0.00  0.00    +0.000 A 
ATOM     22  C51 UNK     0      -8.070   4.635  -2.198  0.00  0.00    +0.000 A 
ATOM     23  C52 UNK     0      -7.939   4.003  -3.437  0.00  0.00    +0.000 A 
ATOM     24  C50 UNK     0      -7.572   2.655  -3.503  0.00  0.00    +0.000 A 
ATOM     25  C48 UNK     0      -7.342   1.936  -2.327  0.00  0.00    +0.000 A 
ENDBRANCH  19  20
ENDBRANCH  18  19
ENDBRANCH   6  18
ENDBRANCH   4   6
ENDBRANCH   1   2
BRANCH   1  26
ATOM     26  C27 UNK     0       0.279   0.860  -0.287  0.00  0.00    +0.000 C 
ATOM     27  N9  UNK     0       1.558   1.473  -0.502  0.00  0.00    +0.000 N 
ATOM     28  H73 UNK     0       1.665   2.483  -0.257  0.00  0.00    +0.000 HD
ATOM     29  O4  UNK     0       0.060  -0.308  -0.711  0.00  0.00    +0.000 OA
BRANCH  27  30
ATOM     30  C21 UNK     0       2.650   0.785  -1.201  0.00  0.00    +0.000 C 
BRANCH  30  31
ATOM     31  C20 UNK     0       3.980   1.124  -0.573  0.00  0.00    +0.000 C 
ATOM     32  N8  UNK     0       5.050   0.168  -0.619  0.00  0.00    +0.000 N 
ATOM     33  H62 UNK     0       4.880  -0.742  -1.103  0.00  0.00    +0.000 HD
ATOM     34  O3  UNK     0       4.172   2.267  -0.074  0.00  0.00    +0.000 OA
BRANCH  32  35
ATOM     35  C15 UNK     0       6.340   0.382   0.042  0.00  0.00    +0.000 C 
BRANCH  35  36
ATOM     36  C16 UNK     0       6.309  -0.253   1.420  0.00  0.00    +0.000 C 
ATOM     37  O2  UNK     0       6.502   0.456   2.395  0.00  0.00    +0.000 OA
BRANCH  36  38
ATOM     38  C13 UNK     0       6.023  -1.719   1.652  0.00  0.00    +0.000 C 
ATOM     39  O1  UNK     0       4.905  -2.224   0.962  0.00  0.00    +0.000 OA
ATOM     40  C14 UNK     0       4.748  -2.030   2.353  0.00  0.00    +0.000 C 
ATOM     41  C17 UNK     0       7.165  -2.725   1.790  0.00  0.00    +0.000 C 
ENDBRANCH  36  38
ENDBRANCH  35  36
BRANCH  35  42
ATOM     42  C18 UNK     0       7.479  -0.156  -0.862  0.00  0.00    +0.000 C 
BRANCH  42  43
ATOM     43  C19 UNK     0       8.910   0.370  -0.570  0.00  0.00    +0.000 C 
ATOM     44  C23 UNK     0       9.518  -0.189   0.717  0.00  0.00    +0.000 C 
ATOM     45  C22 UNK     0       9.011   1.904  -0.602  0.00  0.00    +0.000 C 
ENDBRANCH  42  43
ENDBRANCH  35  42
ENDBRANCH  32  35
ENDBRANCH  30  31
BRANCH  30  46
ATOM     46  C24 UNK     0       2.634   1.163  -2.692  0.00  0.00    +0.000 C 
BRANCH  46  47
ATOM     47  C29 UNK     0       3.566   0.290  -3.493  0.00  0.00    +0.000 A 
ATOM     48  C37 UNK     0       3.182  -1.019  -3.834  0.00  0.00    +0.000 A 
ATOM     49  C45 UNK     0       4.067  -1.858  -4.518  0.00  0.00    +0.000 A 
ATOM     50  C47 UNK     0       5.336  -1.393  -4.871  0.00  0.00    +0.000 A 
ATOM     51  C46 UNK     0       5.726  -0.092  -4.537  0.00  0.00    +0.000 A 
ATOM     52  C38 UNK     0       4.846   0.749  -3.849  0.00  0.00    +0.000 A 
ENDBRANCH  46  47
ENDBRANCH  30  46
ENDBRANCH  27  30
ENDBRANCH   1  26
BRANCH   1  53
ATOM     53  C26 UNK     0      -0.504   1.441   2.046  0.00  0.00    +0.000 C 
BRANCH  53  54
ATOM     54  C28 UNK     0      -0.243   0.002   2.567  0.00  0.00    +0.000 C 
ATOM     55  C33 UNK     0      -1.499  -0.872   2.492  0.00  0.00    +0.000 C 
ATOM     56  C34 UNK     0       0.261   0.058   4.018  0.00  0.00    +0.000 C 
ENDBRANCH  53  54
ENDBRANCH   1  53
TORSDOF 20
