REMARK  Name = C:\Users\Maximilian\Desktop\Conformers\converted_pdb\conformers_pdb\TAK_242_conf_46.pdb
REMARK  25 active torsions:
REMARK  status: ('A' for Active; 'I' for Inactive)
REMARK    1  A    between atoms: C25_1  and  N10_2
REMARK    2  A    between atoms: C25_1  and  C27_26
REMARK    3  A    between atoms: C25_1  and  C26_53
REMARK    4  A    between atoms: C31_4  and  C30_6
REMARK    5  A    between atoms: C30_6  and  C32_7
REMARK    6  A    between atoms: C30_6  and  N11_15
REMARK    7  A    between atoms: C32_7  and  C35_8
REMARK    8  A    between atoms: C35_8  and  C44_9
REMARK    9  A    between atoms: C41_16  and  C36_19
REMARK   10  A    between atoms: C36_19  and  N12_20
REMARK   11  A    between atoms: N9_27  and  C21_30
REMARK   12  A    between atoms: C21_30  and  C24_31
REMARK   13  A    between atoms: C21_30  and  C20_38
REMARK   14  A    between atoms: C24_31  and  C29_32
REMARK   15  A    between atoms: N8_39  and  C15_42
REMARK   16  A    between atoms: C15_42  and  C18_43
REMARK   17  A    between atoms: C15_42  and  C16_47
REMARK   18  A    between atoms: C18_43  and  C19_44
REMARK   19  A    between atoms: C19_44  and  C23_45
REMARK   20  A    between atoms: C19_44  and  C22_46
REMARK   21  A    between atoms: C16_47  and  C13_49
REMARK   22  A    between atoms: C13_49  and  C17_52
REMARK   23  A    between atoms: C26_53  and  C28_54
REMARK   24  A    between atoms: C28_54  and  C33_55
REMARK   25  A    between atoms: C28_54  and  C34_56
REMARK                            x       y       z     vdW  Elec       q    Type
REMARK                         _______ _______ _______ _____ _____    ______ ____
ROOT
ATOM      1  C25 UNK     0      -0.774  -1.045  -2.321  0.00  0.00    +0.000 C 
ENDROOT
BRANCH   1   2
ATOM      2  N10 UNK     0      -1.753  -0.989  -1.230  0.00  0.00    +0.000 N 
ATOM      3  H77 UNK     0      -2.556  -0.323  -1.308  0.00  0.00    +0.000 HD
ATOM      4  C31 UNK     0      -1.607  -1.771  -0.031  0.00  0.00    +0.000 C 
ATOM      5  O6  UNK     0      -0.489  -2.290   0.246  0.00  0.00    +0.000 OA
BRANCH   4   6
ATOM      6  C30 UNK     0      -2.780  -2.028   0.885  0.00  0.00    +0.000 C 
BRANCH   6   7
ATOM      7  N11 UNK     0      -3.696  -0.883   0.879  0.00  0.00    +0.000 N 
ATOM      8  C41 UNK     0      -3.479   0.275   1.697  0.00  0.00    +0.000 C 
ATOM      9  O7  UNK     0      -2.710   0.205   2.693  0.00  0.00    +0.000 OA
ATOM     10  H87 UNK     0      -4.434  -0.834   0.138  0.00  0.00    +0.000 HD
BRANCH   8  11
ATOM     11  C36 UNK     0      -4.197   1.557   1.380  0.00  0.00    +0.000 C 
BRANCH  11  12
ATOM     12  N12 UNK     0      -3.576   2.701   2.089  0.00  0.00    +0.000 NA
ATOM     13  C39 UNK     0      -4.195   2.952   3.411  0.00  0.00    +0.000 C 
ATOM     14  C42 UNK     0      -5.351   3.970   3.333  0.00  0.00    +0.000 C 
ATOM     15  O5  UNK     0      -5.909   3.994   2.036  0.00  0.00    +0.000 OA
ATOM     16  C43 UNK     0      -4.974   4.533   1.118  0.00  0.00    +0.000 C 
ATOM     17  C40 UNK     0      -3.558   3.929   1.273  0.00  0.00    +0.000 C 
ENDBRANCH  11  12
ENDBRANCH   8  11
ENDBRANCH   6   7
BRANCH   6  18
ATOM     18  C32 UNK     0      -3.540  -3.306   0.481  0.00  0.00    +0.000 C 
BRANCH  18  19
ATOM     19  C35 UNK     0      -2.692  -4.577   0.651  0.00  0.00    +0.000 C 
BRANCH  19  20
ATOM     20  C44 UNK     0      -3.531  -5.809   0.441  0.00  0.00    +0.000 A 
ATOM     21  C49 UNK     0      -3.694  -6.346  -0.848  0.00  0.00    +0.000 A 
ATOM     22  C51 UNK     0      -4.487  -7.481  -1.041  0.00  0.00    +0.000 A 
ATOM     23  C52 UNK     0      -5.131  -8.081   0.046  0.00  0.00    +0.000 A 
ATOM     24  C50 UNK     0      -4.990  -7.538   1.327  0.00  0.00    +0.000 A 
ATOM     25  C48 UNK     0      -4.196  -6.405   1.525  0.00  0.00    +0.000 A 
ENDBRANCH  19  20
ENDBRANCH  18  19
ENDBRANCH   6  18
ENDBRANCH   4   6
ENDBRANCH   1   2
BRANCH   1  26
ATOM     26  C27 UNK     0       0.434  -0.199  -1.998  0.00  0.00    +0.000 C 
ATOM     27  N9  UNK     0       0.315   1.021  -1.243  0.00  0.00    +0.000 N 
ATOM     28  H73 UNK     0      -0.630   1.293  -0.897  0.00  0.00    +0.000 HD
ATOM     29  O4  UNK     0       1.555  -0.552  -2.453  0.00  0.00    +0.000 OA
BRANCH  27  30
ATOM     30  C21 UNK     0       1.407   2.005  -1.169  0.00  0.00    +0.000 C 
BRANCH  30  31
ATOM     31  C20 UNK     0       2.656   1.401  -0.569  0.00  0.00    +0.000 C 
ATOM     32  N8  UNK     0       3.942   1.952  -0.890  0.00  0.00    +0.000 N 
ATOM     33  H62 UNK     0       3.978   2.805  -1.495  0.00  0.00    +0.000 HD
ATOM     34  O3  UNK     0       2.562   0.437   0.243  0.00  0.00    +0.000 OA
BRANCH  32  35
ATOM     35  C15 UNK     0       5.192   1.326  -0.448  0.00  0.00    +0.000 C 
BRANCH  35  36
ATOM     36  C16 UNK     0       6.313   1.744  -1.372  0.00  0.00    +0.000 C 
ATOM     37  O2  UNK     0       6.754   2.881  -1.319  0.00  0.00    +0.000 OA
BRANCH  36  38
ATOM     38  C13 UNK     0       6.858   0.776  -2.391  0.00  0.00    +0.000 C 
ATOM     39  O1  UNK     0       7.651   1.402  -3.373  0.00  0.00    +0.000 OA
ATOM     40  C14 UNK     0       6.388   0.924  -3.788  0.00  0.00    +0.000 C 
ATOM     41  C17 UNK     0       7.420  -0.575  -1.953  0.00  0.00    +0.000 C 
ENDBRANCH  36  38
ENDBRANCH  35  36
BRANCH  35  42
ATOM     42  C18 UNK     0       5.472   1.685   1.031  0.00  0.00    +0.000 C 
BRANCH  42  43
ATOM     43  C19 UNK     0       6.586   0.826   1.686  0.00  0.00    +0.000 C 
ATOM     44  C23 UNK     0       6.298   0.630   3.181  0.00  0.00    +0.000 C 
ATOM     45  C22 UNK     0       7.976   1.464   1.516  0.00  0.00    +0.000 C 
ENDBRANCH  42  43
ENDBRANCH  35  42
ENDBRANCH  32  35
ENDBRANCH  30  31
BRANCH  30  46
ATOM     46  C24 UNK     0       0.979   3.280  -0.405  0.00  0.00    +0.000 C 
BRANCH  46  47
ATOM     47  C29 UNK     0       0.964   3.113   1.099  0.00  0.00    +0.000 A 
ATOM     48  C37 UNK     0       2.098   3.452   1.860  0.00  0.00    +0.000 A 
ATOM     49  C45 UNK     0       2.097   3.276   3.247  0.00  0.00    +0.000 A 
ATOM     50  C47 UNK     0       0.962   2.773   3.885  0.00  0.00    +0.000 A 
ATOM     51  C46 UNK     0      -0.167   2.432   3.138  0.00  0.00    +0.000 A 
ATOM     52  C38 UNK     0      -0.166   2.588   1.748  0.00  0.00    +0.000 A 
ENDBRANCH  46  47
ENDBRANCH  30  46
ENDBRANCH  27  30
ENDBRANCH   1  26
BRANCH   1  53
ATOM     53  C26 UNK     0      -1.389  -0.566  -3.659  0.00  0.00    +0.000 C 
BRANCH  53  54
ATOM     54  C28 UNK     0      -2.476  -1.482  -4.282  0.00  0.00    +0.000 C 
ATOM     55  C33 UNK     0      -3.823  -1.421  -3.551  0.00  0.00    +0.000 C 
ATOM     56  C34 UNK     0      -2.017  -2.937  -4.444  0.00  0.00    +0.000 C 
ENDBRANCH  53  54
ENDBRANCH   1  53
TORSDOF 20
