REMARK  Name = C:\Users\Maximilian\Desktop\Conformers\converted_pdb\conformers_pdb\TAK_242_conf_90.pdb
REMARK  25 active torsions:
REMARK  status: ('A' for Active; 'I' for Inactive)
REMARK    1  A    between atoms: C25_1  and  N10_2
REMARK    2  A    between atoms: C25_1  and  C27_26
REMARK    3  A    between atoms: C25_1  and  C26_53
REMARK    4  A    between atoms: C31_4  and  C30_6
REMARK    5  A    between atoms: C30_6  and  C32_7
REMARK    6  A    between atoms: C30_6  and  N11_15
REMARK    7  A    between atoms: C32_7  and  C35_8
REMARK    8  A    between atoms: C35_8  and  C44_9
REMARK    9  A    between atoms: C41_16  and  C36_19
REMARK   10  A    between atoms: C36_19  and  N12_20
REMARK   11  A    between atoms: N9_27  and  C21_30
REMARK   12  A    between atoms: C21_30  and  C24_31
REMARK   13  A    between atoms: C21_30  and  C20_38
REMARK   14  A    between atoms: C24_31  and  C29_32
REMARK   15  A    between atoms: N8_39  and  C15_42
REMARK   16  A    between atoms: C15_42  and  C18_43
REMARK   17  A    between atoms: C15_42  and  C16_47
REMARK   18  A    between atoms: C18_43  and  C19_44
REMARK   19  A    between atoms: C19_44  and  C23_45
REMARK   20  A    between atoms: C19_44  and  C22_46
REMARK   21  A    between atoms: C16_47  and  C13_49
REMARK   22  A    between atoms: C13_49  and  C17_52
REMARK   23  A    between atoms: C26_53  and  C28_54
REMARK   24  A    between atoms: C28_54  and  C33_55
REMARK   25  A    between atoms: C28_54  and  C34_56
REMARK                            x       y       z     vdW  Elec       q    Type
REMARK                         _______ _______ _______ _____ _____    ______ ____
ROOT
ATOM      1  C25 UNK     0       0.160  -1.928  -1.373  0.00  0.00    +0.000 C 
ENDROOT
BRANCH   1   2
ATOM      2  N10 UNK     0       1.475  -1.340  -1.096  0.00  0.00    +0.000 N 
ATOM      3  H77 UNK     0       2.020  -1.705  -0.284  0.00  0.00    +0.000 HD
ATOM      4  C31 UNK     0       1.968  -0.179  -1.784  0.00  0.00    +0.000 C 
ATOM      5  O6  UNK     0       1.233   0.424  -2.611  0.00  0.00    +0.000 OA
BRANCH   4   6
ATOM      6  C30 UNK     0       3.376   0.317  -1.552  0.00  0.00    +0.000 C 
BRANCH   6   7
ATOM      7  N11 UNK     0       3.727   0.228  -0.127  0.00  0.00    +0.000 N 
ATOM      8  C41 UNK     0       2.944   0.849   0.906  0.00  0.00    +0.000 C 
ATOM      9  O7  UNK     0       1.978   1.604   0.605  0.00  0.00    +0.000 OA
ATOM     10  H87 UNK     0       4.557  -0.333   0.162  0.00  0.00    +0.000 HD
BRANCH   8  11
ATOM     11  C36 UNK     0       3.238   0.560   2.355  0.00  0.00    +0.000 C 
BRANCH  11  12
ATOM     12  N12 UNK     0       3.764   1.729   3.095  0.00  0.00    +0.000 NA
ATOM     13  C39 UNK     0       2.750   2.759   3.423  0.00  0.00    +0.000 C 
ATOM     14  C42 UNK     0       3.067   4.114   2.774  0.00  0.00    +0.000 C 
ATOM     15  O5  UNK     0       3.541   3.913   1.460  0.00  0.00    +0.000 OA
ATOM     16  C43 UNK     0       4.841   3.352   1.489  0.00  0.00    +0.000 C 
ATOM     17  C40 UNK     0       5.042   2.263   2.577  0.00  0.00    +0.000 C 
ENDBRANCH  11  12
ENDBRANCH   8  11
ENDBRANCH   6   7
BRANCH   6  18
ATOM     18  C32 UNK     0       4.376  -0.497  -2.398  0.00  0.00    +0.000 C 
BRANCH  18  19
ATOM     19  C35 UNK     0       4.173  -0.306  -3.910  0.00  0.00    +0.000 C 
BRANCH  19  20
ATOM     20  C44 UNK     0       5.142  -1.161  -4.684  0.00  0.00    +0.000 A 
ATOM     21  C49 UNK     0       6.365  -0.632  -5.128  0.00  0.00    +0.000 A 
ATOM     22  C51 UNK     0       7.269  -1.442  -5.823  0.00  0.00    +0.000 A 
ATOM     23  C52 UNK     0       6.966  -2.783  -6.071  0.00  0.00    +0.000 A 
ATOM     24  C50 UNK     0       5.757  -3.318  -5.617  0.00  0.00    +0.000 A 
ATOM     25  C48 UNK     0       4.848  -2.512  -4.928  0.00  0.00    +0.000 A 
ENDBRANCH  19  20
ENDBRANCH  18  19
ENDBRANCH   6  18
ENDBRANCH   4   6
ENDBRANCH   1   2
BRANCH   1  26
ATOM     26  C27 UNK     0      -0.901  -1.165  -0.602  0.00  0.00    +0.000 C 
ATOM     27  N9  UNK     0      -2.122  -1.793  -0.164  0.00  0.00    +0.000 N 
ATOM     28  H73 UNK     0      -2.390  -2.724  -0.551  0.00  0.00    +0.000 HD
ATOM     29  O4  UNK     0      -0.727   0.066  -0.388  0.00  0.00    +0.000 OA
BRANCH  27  30
ATOM     30  C21 UNK     0      -3.051  -1.192   0.807  0.00  0.00    +0.000 C 
BRANCH  30  31
ATOM     31  C20 UNK     0      -3.826  -0.051   0.193  0.00  0.00    +0.000 C 
ATOM     32  N8  UNK     0      -4.952   0.498   0.894  0.00  0.00    +0.000 N 
ATOM     33  H62 UNK     0      -5.278   0.003   1.754  0.00  0.00    +0.000 HD
ATOM     34  O3  UNK     0      -3.498   0.412  -0.934  0.00  0.00    +0.000 OA
BRANCH  32  35
ATOM     35  C15 UNK     0      -5.704   1.659   0.395  0.00  0.00    +0.000 C 
BRANCH  35  36
ATOM     36  C16 UNK     0      -7.025   1.781   1.139  0.00  0.00    +0.000 C 
ATOM     37  O2  UNK     0      -8.042   1.377   0.594  0.00  0.00    +0.000 OA
BRANCH  36  38
ATOM     38  C13 UNK     0      -7.115   2.337   2.546  0.00  0.00    +0.000 C 
ATOM     39  O1  UNK     0      -8.445   2.499   2.982  0.00  0.00    +0.000 OA
ATOM     40  C14 UNK     0      -7.720   3.678   2.711  0.00  0.00    +0.000 C 
ATOM     41  C17 UNK     0      -6.214   1.802   3.661  0.00  0.00    +0.000 C 
ENDBRANCH  36  38
ENDBRANCH  35  36
BRANCH  35  42
ATOM     42  C18 UNK     0      -4.848   2.955   0.486  0.00  0.00    +0.000 C 
BRANCH  42  43
ATOM     43  C19 UNK     0      -5.045   3.913  -0.715  0.00  0.00    +0.000 C 
ATOM     44  C23 UNK     0      -3.974   5.015  -0.699  0.00  0.00    +0.000 C 
ATOM     45  C22 UNK     0      -6.442   4.547  -0.715  0.00  0.00    +0.000 C 
ENDBRANCH  42  43
ENDBRANCH  35  42
ENDBRANCH  32  35
ENDBRANCH  30  31
BRANCH  30  46
ATOM     46  C24 UNK     0      -2.337  -0.755   2.108  0.00  0.00    +0.000 C 
BRANCH  46  47
ATOM     47  C29 UNK     0      -1.514  -1.872   2.702  0.00  0.00    +0.000 A 
ATOM     48  C37 UNK     0      -2.140  -2.930   3.384  0.00  0.00    +0.000 A 
ATOM     49  C45 UNK     0      -1.380  -3.987   3.894  0.00  0.00    +0.000 A 
ATOM     50  C47 UNK     0       0.009  -3.994   3.728  0.00  0.00    +0.000 A 
ATOM     51  C46 UNK     0       0.639  -2.948   3.049  0.00  0.00    +0.000 A 
ATOM     52  C38 UNK     0      -0.119  -1.889   2.542  0.00  0.00    +0.000 A 
ENDBRANCH  46  47
ENDBRANCH  30  46
ENDBRANCH  27  30
ENDBRANCH   1  26
BRANCH   1  53
ATOM     53  C26 UNK     0       0.178  -3.441  -1.031  0.00  0.00    +0.000 C 
BRANCH  53  54
ATOM     54  C28 UNK     0       1.379  -4.223  -1.622  0.00  0.00    +0.000 C 
ATOM     55  C33 UNK     0       1.439  -4.121  -3.152  0.00  0.00    +0.000 C 
ATOM     56  C34 UNK     0       1.301  -5.694  -1.194  0.00  0.00    +0.000 C 
ENDBRANCH  53  54
ENDBRANCH   1  53
TORSDOF 20
