REMARK  Name = C:\Users\Maximilian\Desktop\Conformers\converted_pdb\conformers_pdb\TAK_242_conf_7.pdb
REMARK  25 active torsions:
REMARK  status: ('A' for Active; 'I' for Inactive)
REMARK    1  A    between atoms: C25_1  and  N10_2
REMARK    2  A    between atoms: C25_1  and  C27_26
REMARK    3  A    between atoms: C25_1  and  C26_53
REMARK    4  A    between atoms: C31_4  and  C30_6
REMARK    5  A    between atoms: C30_6  and  C32_7
REMARK    6  A    between atoms: C30_6  and  N11_15
REMARK    7  A    between atoms: C32_7  and  C35_8
REMARK    8  A    between atoms: C35_8  and  C44_9
REMARK    9  A    between atoms: C41_16  and  C36_19
REMARK   10  A    between atoms: C36_19  and  N12_20
REMARK   11  A    between atoms: N9_27  and  C21_30
REMARK   12  A    between atoms: C21_30  and  C24_31
REMARK   13  A    between atoms: C21_30  and  C20_38
REMARK   14  A    between atoms: C24_31  and  C29_32
REMARK   15  A    between atoms: N8_39  and  C15_42
REMARK   16  A    between atoms: C15_42  and  C18_43
REMARK   17  A    between atoms: C15_42  and  C16_47
REMARK   18  A    between atoms: C18_43  and  C19_44
REMARK   19  A    between atoms: C19_44  and  C23_45
REMARK   20  A    between atoms: C19_44  and  C22_46
REMARK   21  A    between atoms: C16_47  and  C13_49
REMARK   22  A    between atoms: C13_49  and  C17_52
REMARK   23  A    between atoms: C26_53  and  C28_54
REMARK   24  A    between atoms: C28_54  and  C33_55
REMARK   25  A    between atoms: C28_54  and  C34_56
REMARK                            x       y       z     vdW  Elec       q    Type
REMARK                         _______ _______ _______ _____ _____    ______ ____
ROOT
ATOM      1  C25 UNK     0       0.698   1.625   1.340  0.00  0.00    +0.000 C 
ENDROOT
BRANCH   1   2
ATOM      2  N10 UNK     0       1.616   0.822   0.524  0.00  0.00    +0.000 N 
ATOM      3  H77 UNK     0       2.125   1.284  -0.265  0.00  0.00    +0.000 HD
ATOM      4  C31 UNK     0       1.732  -0.601   0.653  0.00  0.00    +0.000 C 
ATOM      5  O6  UNK     0       1.140  -1.208   1.587  0.00  0.00    +0.000 OA
BRANCH   4   6
ATOM      6  C30 UNK     0       2.510  -1.372  -0.378  0.00  0.00    +0.000 C 
BRANCH   6   7
ATOM      7  N11 UNK     0       3.136  -2.556   0.226  0.00  0.00    +0.000 N 
ATOM      8  C41 UNK     0       4.544  -2.640   0.500  0.00  0.00    +0.000 C 
ATOM      9  O7  UNK     0       5.286  -1.634   0.328  0.00  0.00    +0.000 OA
ATOM     10  H87 UNK     0       2.519  -3.347   0.515  0.00  0.00    +0.000 HD
BRANCH   8  11
ATOM     11  C36 UNK     0       5.138  -3.910   1.040  0.00  0.00    +0.000 C 
BRANCH  11  12
ATOM     12  N12 UNK     0       6.322  -4.301   0.236  0.00  0.00    +0.000 NA
ATOM     13  C39 UNK     0       7.594  -3.818   0.816  0.00  0.00    +0.000 C 
ATOM     14  C42 UNK     0       8.062  -4.694   1.994  0.00  0.00    +0.000 C 
ATOM     15  O5  UNK     0       8.160  -6.051   1.605  0.00  0.00    +0.000 OA
ATOM     16  C43 UNK     0       6.887  -6.519   1.213  0.00  0.00    +0.000 C 
ATOM     17  C40 UNK     0       6.393  -5.754  -0.023  0.00  0.00    +0.000 C 
ENDBRANCH  11  12
ENDBRANCH   8  11
ENDBRANCH   6   7
BRANCH   6  18
ATOM     18  C32 UNK     0       1.577  -1.786  -1.533  0.00  0.00    +0.000 C 
BRANCH  18  19
ATOM     19  C35 UNK     0       2.341  -2.307  -2.764  0.00  0.00    +0.000 C 
BRANCH  19  20
ATOM     20  C44 UNK     0       3.073  -1.198  -3.482  0.00  0.00    +0.000 A 
ATOM     21  C49 UNK     0       4.450  -1.005  -3.280  0.00  0.00    +0.000 A 
ATOM     22  C51 UNK     0       5.107   0.067  -3.894  0.00  0.00    +0.000 A 
ATOM     23  C52 UNK     0       4.396   0.952  -4.710  0.00  0.00    +0.000 A 
ATOM     24  C50 UNK     0       3.027   0.765  -4.915  0.00  0.00    +0.000 A 
ATOM     25  C48 UNK     0       2.366  -0.305  -4.307  0.00  0.00    +0.000 A 
ENDBRANCH  19  20
ENDBRANCH  18  19
ENDBRANCH   6  18
ENDBRANCH   4   6
ENDBRANCH   1   2
BRANCH   1  26
ATOM     26  C27 UNK     0      -0.709   1.401   0.844  0.00  0.00    +0.000 C 
ATOM     27  N9  UNK     0      -1.801   1.297   1.775  0.00  0.00    +0.000 N 
ATOM     28  H73 UNK     0      -1.538   1.257   2.784  0.00  0.00    +0.000 HD
ATOM     29  O4  UNK     0      -0.910   1.303  -0.394  0.00  0.00    +0.000 OA
BRANCH  27  30
ATOM     30  C21 UNK     0      -3.203   1.035   1.411  0.00  0.00    +0.000 C 
BRANCH  30  31
ATOM     31  C20 UNK     0      -3.619   1.778   0.167  0.00  0.00    +0.000 C 
ATOM     32  N8  UNK     0      -4.570   1.185  -0.728  0.00  0.00    +0.000 N 
ATOM     33  H62 UNK     0      -5.113   0.357  -0.395  0.00  0.00    +0.000 HD
ATOM     34  O3  UNK     0      -3.165   2.934  -0.059  0.00  0.00    +0.000 OA
BRANCH  32  35
ATOM     35  C15 UNK     0      -4.724   1.574  -2.134  0.00  0.00    +0.000 C 
BRANCH  35  36
ATOM     36  C16 UNK     0      -5.130   3.033  -2.241  0.00  0.00    +0.000 C 
ATOM     37  O2  UNK     0      -4.335   3.871  -2.631  0.00  0.00    +0.000 OA
BRANCH  36  38
ATOM     38  C13 UNK     0      -6.471   3.493  -1.744  0.00  0.00    +0.000 C 
ATOM     39  O1  UNK     0      -7.543   2.745  -2.264  0.00  0.00    +0.000 OA
ATOM     40  C14 UNK     0      -7.405   4.066  -2.739  0.00  0.00    +0.000 C 
ATOM     41  C17 UNK     0      -6.648   3.864  -0.272  0.00  0.00    +0.000 C 
ENDBRANCH  36  38
ENDBRANCH  35  36
BRANCH  35  42
ATOM     42  C18 UNK     0      -3.445   1.244  -2.948  0.00  0.00    +0.000 C 
BRANCH  42  43
ATOM     43  C19 UNK     0      -2.956  -0.221  -2.795  0.00  0.00    +0.000 C 
ATOM     44  C23 UNK     0      -1.620  -0.415  -3.526  0.00  0.00    +0.000 C 
ATOM     45  C22 UNK     0      -3.991  -1.235  -3.311  0.00  0.00    +0.000 C 
ENDBRANCH  42  43
ENDBRANCH  35  42
ENDBRANCH  32  35
ENDBRANCH  30  31
BRANCH  30  46
ATOM     46  C24 UNK     0      -4.154   1.436   2.559  0.00  0.00    +0.000 C 
BRANCH  46  47
ATOM     47  C29 UNK     0      -3.904   0.629   3.808  0.00  0.00    +0.000 A 
ATOM     48  C37 UNK     0      -4.341  -0.705   3.881  0.00  0.00    +0.000 A 
ATOM     49  C45 UNK     0      -4.083  -1.468   5.023  0.00  0.00    +0.000 A 
ATOM     50  C47 UNK     0      -3.376  -0.912   6.094  0.00  0.00    +0.000 A 
ATOM     51  C46 UNK     0      -2.941   0.416   6.029  0.00  0.00    +0.000 A 
ATOM     52  C38 UNK     0      -3.207   1.186   4.893  0.00  0.00    +0.000 A 
ENDBRANCH  46  47
ENDBRANCH  30  46
ENDBRANCH  27  30
ENDBRANCH   1  26
BRANCH   1  53
ATOM     53  C26 UNK     0       1.123   3.113   1.256  0.00  0.00    +0.000 C 
BRANCH  53  54
ATOM     54  C28 UNK     0       0.488   4.107   2.263  0.00  0.00    +0.000 C 
ATOM     55  C33 UNK     0       0.537   3.616   3.717  0.00  0.00    +0.000 C 
ATOM     56  C34 UNK     0      -0.924   4.553   1.868  0.00  0.00    +0.000 C 
ENDBRANCH  53  54
ENDBRANCH   1  53
TORSDOF 20
