REMARK  Name = C:\Users\Maximilian\Desktop\Conformers\converted_pdb\conformers_pdb\TAK_242_conf_89.pdb
REMARK  25 active torsions:
REMARK  status: ('A' for Active; 'I' for Inactive)
REMARK    1  A    between atoms: C25_1  and  N10_2
REMARK    2  A    between atoms: C25_1  and  C27_26
REMARK    3  A    between atoms: C25_1  and  C26_53
REMARK    4  A    between atoms: C31_4  and  C30_6
REMARK    5  A    between atoms: C30_6  and  C32_7
REMARK    6  A    between atoms: C30_6  and  N11_15
REMARK    7  A    between atoms: C32_7  and  C35_8
REMARK    8  A    between atoms: C35_8  and  C44_9
REMARK    9  A    between atoms: C41_16  and  C36_19
REMARK   10  A    between atoms: C36_19  and  N12_20
REMARK   11  A    between atoms: N9_27  and  C21_30
REMARK   12  A    between atoms: C21_30  and  C24_31
REMARK   13  A    between atoms: C21_30  and  C20_38
REMARK   14  A    between atoms: C24_31  and  C29_32
REMARK   15  A    between atoms: N8_39  and  C15_42
REMARK   16  A    between atoms: C15_42  and  C18_43
REMARK   17  A    between atoms: C15_42  and  C16_47
REMARK   18  A    between atoms: C18_43  and  C19_44
REMARK   19  A    between atoms: C19_44  and  C23_45
REMARK   20  A    between atoms: C19_44  and  C22_46
REMARK   21  A    between atoms: C16_47  and  C13_49
REMARK   22  A    between atoms: C13_49  and  C17_52
REMARK   23  A    between atoms: C26_53  and  C28_54
REMARK   24  A    between atoms: C28_54  and  C33_55
REMARK   25  A    between atoms: C28_54  and  C34_56
REMARK                            x       y       z     vdW  Elec       q    Type
REMARK                         _______ _______ _______ _____ _____    ______ ____
ROOT
ATOM      1  C25 UNK     0       0.164  -1.925   0.167  0.00  0.00    +0.000 C 
ENDROOT
BRANCH   1   2
ATOM      2  N10 UNK     0       1.491  -1.338  -0.056  0.00  0.00    +0.000 N 
ATOM      3  H77 UNK     0       1.662  -0.893  -0.987  0.00  0.00    +0.000 HD
ATOM      4  C31 UNK     0       2.606  -1.434   0.849  0.00  0.00    +0.000 C 
ATOM      5  O6  UNK     0       2.434  -1.789   2.046  0.00  0.00    +0.000 OA
BRANCH   4   6
ATOM      6  C30 UNK     0       3.999  -1.159   0.343  0.00  0.00    +0.000 C 
BRANCH   6   7
ATOM      7  N11 UNK     0       4.823  -0.577   1.408  0.00  0.00    +0.000 N 
ATOM      8  C41 UNK     0       4.650   0.780   1.842  0.00  0.00    +0.000 C 
ATOM      9  O7  UNK     0       3.583   1.399   1.584  0.00  0.00    +0.000 OA
ATOM     10  H87 UNK     0       5.633  -1.119   1.788  0.00  0.00    +0.000 HD
BRANCH   8  11
ATOM     11  C36 UNK     0       5.719   1.453   2.654  0.00  0.00    +0.000 C 
BRANCH  11  12
ATOM     12  N12 UNK     0       5.858   2.872   2.265  0.00  0.00    +0.000 NA
ATOM     13  C39 UNK     0       6.652   3.603   3.273  0.00  0.00    +0.000 C 
ATOM     14  C42 UNK     0       7.057   4.998   2.757  0.00  0.00    +0.000 C 
ATOM     15  O5  UNK     0       6.276   5.359   1.634  0.00  0.00    +0.000 OA
ATOM     16  C43 UNK     0       6.574   4.497   0.547  0.00  0.00    +0.000 C 
ATOM     17  C40 UNK     0       6.495   3.007   0.939  0.00  0.00    +0.000 C 
ENDBRANCH  11  12
ENDBRANCH   8  11
ENDBRANCH   6   7
BRANCH   6  18
ATOM     18  C32 UNK     0       4.656  -2.450  -0.190  0.00  0.00    +0.000 C 
BRANCH  18  19
ATOM     19  C35 UNK     0       3.996  -2.953  -1.485  0.00  0.00    +0.000 C 
BRANCH  19  20
ATOM     20  C44 UNK     0       4.712  -4.172  -2.004  0.00  0.00    +0.000 A 
ATOM     21  C49 UNK     0       4.376  -5.447  -1.519  0.00  0.00    +0.000 A 
ATOM     22  C51 UNK     0       5.068  -6.577  -1.969  0.00  0.00    +0.000 A 
ATOM     23  C52 UNK     0       6.098  -6.444  -2.905  0.00  0.00    +0.000 A 
ATOM     24  C50 UNK     0       6.446  -5.177  -3.383  0.00  0.00    +0.000 A 
ATOM     25  C48 UNK     0       5.763  -4.042  -2.930  0.00  0.00    +0.000 A 
ENDBRANCH  19  20
ENDBRANCH  18  19
ENDBRANCH   6  18
ENDBRANCH   4   6
ENDBRANCH   1   2
BRANCH   1  26
ATOM     26  C27 UNK     0      -0.637  -1.070   1.117  0.00  0.00    +0.000 C 
ATOM     27  N9  UNK     0      -1.763  -0.334   0.620  0.00  0.00    +0.000 N 
ATOM     28  H73 UNK     0      -1.873  -0.229  -0.413  0.00  0.00    +0.000 HD
ATOM     29  O4  UNK     0      -0.326  -1.011   2.339  0.00  0.00    +0.000 OA
BRANCH  27  30
ATOM     30  C21 UNK     0      -2.782   0.250   1.497  0.00  0.00    +0.000 C 
BRANCH  30  31
ATOM     31  C20 UNK     0      -4.124   0.181   0.799  0.00  0.00    +0.000 C 
ATOM     32  N8  UNK     0      -4.827   1.335   0.308  0.00  0.00    +0.000 N 
ATOM     33  H62 UNK     0      -4.734   2.251   0.795  0.00  0.00    +0.000 HD
ATOM     34  O3  UNK     0      -4.595  -0.967   0.560  0.00  0.00    +0.000 OA
BRANCH  32  35
ATOM     35  C15 UNK     0      -5.685   1.253  -0.881  0.00  0.00    +0.000 C 
BRANCH  35  36
ATOM     36  C16 UNK     0      -6.972   0.525  -0.541  0.00  0.00    +0.000 C 
ATOM     37  O2  UNK     0      -7.230  -0.524  -1.119  0.00  0.00    +0.000 OA
BRANCH  36  38
ATOM     38  C13 UNK     0      -7.912   1.023   0.536  0.00  0.00    +0.000 C 
ATOM     39  O1  UNK     0      -9.114   0.289   0.562  0.00  0.00    +0.000 OA
ATOM     40  C14 UNK     0      -9.200   1.626   0.120  0.00  0.00    +0.000 C 
ATOM     41  C17 UNK     0      -7.404   1.307   1.954  0.00  0.00    +0.000 C 
ENDBRANCH  36  38
ENDBRANCH  35  36
BRANCH  35  42
ATOM     42  C18 UNK     0      -5.946   2.669  -1.461  0.00  0.00    +0.000 C 
BRANCH  42  43
ATOM     43  C19 UNK     0      -6.295   2.740  -2.974  0.00  0.00    +0.000 C 
ATOM     44  C23 UNK     0      -7.725   2.285  -3.280  0.00  0.00    +0.000 C 
ATOM     45  C22 UNK     0      -5.283   2.015  -3.877  0.00  0.00    +0.000 C 
ENDBRANCH  42  43
ENDBRANCH  35  42
ENDBRANCH  32  35
ENDBRANCH  30  31
BRANCH  30  46
ATOM     46  C24 UNK     0      -2.338   1.643   2.021  0.00  0.00    +0.000 C 
BRANCH  46  47
ATOM     47  C29 UNK     0      -1.395   2.384   1.092  0.00  0.00    +0.000 A 
ATOM     48  C37 UNK     0      -1.844   2.926  -0.126  0.00  0.00    +0.000 A 
ATOM     49  C45 UNK     0      -0.956   3.582  -0.985  0.00  0.00    +0.000 A 
ATOM     50  C47 UNK     0       0.389   3.716  -0.630  0.00  0.00    +0.000 A 
ATOM     51  C46 UNK     0       0.845   3.187   0.578  0.00  0.00    +0.000 A 
ATOM     52  C38 UNK     0      -0.035   2.513   1.428  0.00  0.00    +0.000 A 
ENDBRANCH  46  47
ENDBRANCH  30  46
ENDBRANCH  27  30
ENDBRANCH   1  26
BRANCH   1  53
ATOM     53  C26 UNK     0       0.250  -3.401   0.626  0.00  0.00    +0.000 C 
BRANCH  53  54
ATOM     54  C28 UNK     0      -1.107  -4.149   0.556  0.00  0.00    +0.000 C 
ATOM     55  C33 UNK     0      -1.048  -5.430   1.396  0.00  0.00    +0.000 C 
ATOM     56  C34 UNK     0      -1.491  -4.506  -0.888  0.00  0.00    +0.000 C 
ENDBRANCH  53  54
ENDBRANCH   1  53
TORSDOF 20
