REMARK  Name = C:\Users\Maximilian\Desktop\Conformers\converted_pdb\conformers_pdb\TAK_242_conf_8.pdb
REMARK  25 active torsions:
REMARK  status: ('A' for Active; 'I' for Inactive)
REMARK    1  A    between atoms: C25_1  and  N10_2
REMARK    2  A    between atoms: C25_1  and  C27_26
REMARK    3  A    between atoms: C25_1  and  C26_53
REMARK    4  A    between atoms: C31_4  and  C30_6
REMARK    5  A    between atoms: C30_6  and  C32_7
REMARK    6  A    between atoms: C30_6  and  N11_15
REMARK    7  A    between atoms: C32_7  and  C35_8
REMARK    8  A    between atoms: C35_8  and  C44_9
REMARK    9  A    between atoms: C41_16  and  C36_19
REMARK   10  A    between atoms: C36_19  and  N12_20
REMARK   11  A    between atoms: N9_27  and  C21_30
REMARK   12  A    between atoms: C21_30  and  C24_31
REMARK   13  A    between atoms: C21_30  and  C20_38
REMARK   14  A    between atoms: C24_31  and  C29_32
REMARK   15  A    between atoms: N8_39  and  C15_42
REMARK   16  A    between atoms: C15_42  and  C18_43
REMARK   17  A    between atoms: C15_42  and  C16_47
REMARK   18  A    between atoms: C18_43  and  C19_44
REMARK   19  A    between atoms: C19_44  and  C23_45
REMARK   20  A    between atoms: C19_44  and  C22_46
REMARK   21  A    between atoms: C16_47  and  C13_49
REMARK   22  A    between atoms: C13_49  and  C17_52
REMARK   23  A    between atoms: C26_53  and  C28_54
REMARK   24  A    between atoms: C28_54  and  C33_55
REMARK   25  A    between atoms: C28_54  and  C34_56
REMARK                            x       y       z     vdW  Elec       q    Type
REMARK                         _______ _______ _______ _____ _____    ______ ____
ROOT
ATOM      1  C25 UNK     0       0.579   2.224  -2.310  0.00  0.00    +0.000 C 
ENDROOT
BRANCH   1   2
ATOM      2  N10 UNK     0       1.739   1.755  -1.542  0.00  0.00    +0.000 N 
ATOM      3  H77 UNK     0       2.510   1.228  -2.015  0.00  0.00    +0.000 HD
ATOM      4  C31 UNK     0       1.822   1.925  -0.117  0.00  0.00    +0.000 C 
ATOM      5  O6  UNK     0       0.912   2.538   0.501  0.00  0.00    +0.000 OA
BRANCH   4   6
ATOM      6  C30 UNK     0       3.005   1.394   0.654  0.00  0.00    +0.000 C 
BRANCH   6   7
ATOM      7  N11 UNK     0       3.281   0.010   0.254  0.00  0.00    +0.000 N 
ATOM      8  C41 UNK     0       2.374  -1.066   0.536  0.00  0.00    +0.000 C 
ATOM      9  O7  UNK     0       1.332  -0.857   1.214  0.00  0.00    +0.000 OA
ATOM     10  H87 UNK     0       4.159  -0.211  -0.269  0.00  0.00    +0.000 HD
BRANCH   8  11
ATOM     11  C36 UNK     0       2.647  -2.444  -0.008  0.00  0.00    +0.000 C 
BRANCH  11  12
ATOM     12  N12 UNK     0       3.265  -3.360   0.973  0.00  0.00    +0.000 NA
ATOM     13  C39 UNK     0       4.599  -2.915   1.423  0.00  0.00    +0.000 C 
ATOM     14  C42 UNK     0       5.111  -3.813   2.565  0.00  0.00    +0.000 C 
ATOM     15  O5  UNK     0       4.382  -5.024   2.621  0.00  0.00    +0.000 OA
ATOM     16  C43 UNK     0       3.036  -4.762   2.987  0.00  0.00    +0.000 C 
ATOM     17  C40 UNK     0       2.391  -3.659   2.119  0.00  0.00    +0.000 C 
ENDBRANCH  11  12
ENDBRANCH   8  11
ENDBRANCH   6   7
BRANCH   6  18
ATOM     18  C32 UNK     0       4.250   2.268   0.418  0.00  0.00    +0.000 C 
BRANCH  18  19
ATOM     19  C35 UNK     0       4.088   3.689   0.974  0.00  0.00    +0.000 C 
BRANCH  19  20
ATOM     20  C44 UNK     0       5.357   4.474   0.780  0.00  0.00    +0.000 A 
ATOM     21  C49 UNK     0       5.602   5.136  -0.435  0.00  0.00    +0.000 A 
ATOM     22  C51 UNK     0       6.805   5.822  -0.633  0.00  0.00    +0.000 A 
ATOM     23  C52 UNK     0       7.775   5.842   0.373  0.00  0.00    +0.000 A 
ATOM     24  C50 UNK     0       7.542   5.176   1.581  0.00  0.00    +0.000 A 
ATOM     25  C48 UNK     0       6.341   4.489   1.783  0.00  0.00    +0.000 A 
ENDBRANCH  19  20
ENDBRANCH  18  19
ENDBRANCH   6  18
ENDBRANCH   4   6
ENDBRANCH   1   2
BRANCH   1  26
ATOM     26  C27 UNK     0      -0.650   1.378  -2.067  0.00  0.00    +0.000 C 
ATOM     27  N9  UNK     0      -0.559   0.050  -1.523  0.00  0.00    +0.000 N 
ATOM     28  H73 UNK     0       0.378  -0.340  -1.287  0.00  0.00    +0.000 HD
ATOM     29  O4  UNK     0      -1.780   1.861  -2.355  0.00  0.00    +0.000 OA
BRANCH  27  30
ATOM     30  C21 UNK     0      -1.744  -0.781  -1.303  0.00  0.00    +0.000 C 
BRANCH  30  31
ATOM     31  C20 UNK     0      -2.430  -0.351  -0.031  0.00  0.00    +0.000 C 
ATOM     32  N8  UNK     0      -3.843  -0.097  -0.022  0.00  0.00    +0.000 N 
ATOM     33  H62 UNK     0      -4.365  -0.151  -0.927  0.00  0.00    +0.000 HD
ATOM     34  O3  UNK     0      -1.755  -0.234   1.028  0.00  0.00    +0.000 OA
BRANCH  32  35
ATOM     35  C15 UNK     0      -4.563   0.348   1.177  0.00  0.00    +0.000 C 
BRANCH  35  36
ATOM     36  C16 UNK     0      -4.803   1.840   1.095  0.00  0.00    +0.000 C 
ATOM     37  O2  UNK     0      -5.215   2.306   0.040  0.00  0.00    +0.000 OA
BRANCH  36  38
ATOM     38  C13 UNK     0      -4.594   2.760   2.287  0.00  0.00    +0.000 C 
ATOM     39  O1  UNK     0      -5.722   3.572   2.515  0.00  0.00    +0.000 OA
ATOM     40  C14 UNK     0      -4.559   4.227   2.056  0.00  0.00    +0.000 C 
ATOM     41  C17 UNK     0      -4.004   2.239   3.601  0.00  0.00    +0.000 C 
ENDBRANCH  36  38
ENDBRANCH  35  36
BRANCH  35  42
ATOM     42  C18 UNK     0      -5.909  -0.394   1.303  0.00  0.00    +0.000 C 
BRANCH  42  43
ATOM     43  C19 UNK     0      -5.771  -1.934   1.324  0.00  0.00    +0.000 C 
ATOM     44  C23 UNK     0      -7.159  -2.586   1.307  0.00  0.00    +0.000 C 
ATOM     45  C22 UNK     0      -4.976  -2.428   2.543  0.00  0.00    +0.000 C 
ENDBRANCH  42  43
ENDBRANCH  35  42
ENDBRANCH  32  35
ENDBRANCH  30  31
BRANCH  30  46
ATOM     46  C24 UNK     0      -1.343  -2.268  -1.236  0.00  0.00    +0.000 C 
BRANCH  46  47
ATOM     47  C29 UNK     0      -2.539  -3.186  -1.152  0.00  0.00    +0.000 A 
ATOM     48  C37 UNK     0      -3.423  -3.306  -2.239  0.00  0.00    +0.000 A 
ATOM     49  C45 UNK     0      -4.526  -4.162  -2.159  0.00  0.00    +0.000 A 
ATOM     50  C47 UNK     0      -4.750  -4.911  -1.002  0.00  0.00    +0.000 A 
ATOM     51  C46 UNK     0      -3.869  -4.809   0.078  0.00  0.00    +0.000 A 
ATOM     52  C38 UNK     0      -2.770  -3.946   0.008  0.00  0.00    +0.000 A 
ENDBRANCH  46  47
ENDBRANCH  30  46
ENDBRANCH  27  30
ENDBRANCH   1  26
BRANCH   1  53
ATOM     53  C26 UNK     0       0.886   2.404  -3.820  0.00  0.00    +0.000 C 
BRANCH  53  54
ATOM     54  C28 UNK     0       1.526   1.217  -4.595  0.00  0.00    +0.000 C 
ATOM     55  C33 UNK     0       1.746   1.626  -6.058  0.00  0.00    +0.000 C 
ATOM     56  C34 UNK     0       0.691  -0.071  -4.542  0.00  0.00    +0.000 C 
ENDBRANCH  53  54
ENDBRANCH   1  53
TORSDOF 20
