REMARK  Name = C:\Users\Maximilian\Desktop\Conformers\converted_pdb\conformers_pdb\TAK_242_conf_74.pdb
REMARK  25 active torsions:
REMARK  status: ('A' for Active; 'I' for Inactive)
REMARK    1  A    between atoms: C25_1  and  N10_2
REMARK    2  A    between atoms: C25_1  and  C27_26
REMARK    3  A    between atoms: C25_1  and  C26_53
REMARK    4  A    between atoms: C31_4  and  C30_6
REMARK    5  A    between atoms: C30_6  and  C32_7
REMARK    6  A    between atoms: C30_6  and  N11_15
REMARK    7  A    between atoms: C32_7  and  C35_8
REMARK    8  A    between atoms: C35_8  and  C44_9
REMARK    9  A    between atoms: C41_16  and  C36_19
REMARK   10  A    between atoms: C36_19  and  N12_20
REMARK   11  A    between atoms: N9_27  and  C21_30
REMARK   12  A    between atoms: C21_30  and  C24_31
REMARK   13  A    between atoms: C21_30  and  C20_38
REMARK   14  A    between atoms: C24_31  and  C29_32
REMARK   15  A    between atoms: N8_39  and  C15_42
REMARK   16  A    between atoms: C15_42  and  C18_43
REMARK   17  A    between atoms: C15_42  and  C16_47
REMARK   18  A    between atoms: C18_43  and  C19_44
REMARK   19  A    between atoms: C19_44  and  C23_45
REMARK   20  A    between atoms: C19_44  and  C22_46
REMARK   21  A    between atoms: C16_47  and  C13_49
REMARK   22  A    between atoms: C13_49  and  C17_52
REMARK   23  A    between atoms: C26_53  and  C28_54
REMARK   24  A    between atoms: C28_54  and  C33_55
REMARK   25  A    between atoms: C28_54  and  C34_56
REMARK                            x       y       z     vdW  Elec       q    Type
REMARK                         _______ _______ _______ _____ _____    ______ ____
ROOT
ATOM      1  C25 UNK     0       0.119   2.199  -0.222  0.00  0.00    +0.000 C 
ENDROOT
BRANCH   1   2
ATOM      2  N10 UNK     0       1.164   1.171  -0.217  0.00  0.00    +0.000 N 
ATOM      3  H77 UNK     0       1.120   0.417  -0.942  0.00  0.00    +0.000 HD
ATOM      4  C31 UNK     0       2.242   1.156   0.729  0.00  0.00    +0.000 C 
ATOM      5  O6  UNK     0       2.200   1.892   1.753  0.00  0.00    +0.000 OA
BRANCH   4   6
ATOM      6  C30 UNK     0       3.449   0.290   0.491  0.00  0.00    +0.000 C 
BRANCH   6   7
ATOM      7  N11 UNK     0       3.028  -1.098   0.299  0.00  0.00    +0.000 N 
ATOM      8  C41 UNK     0       2.792  -1.991   1.395  0.00  0.00    +0.000 C 
ATOM      9  O7  UNK     0       2.796  -1.561   2.585  0.00  0.00    +0.000 OA
ATOM     10  H87 UNK     0       2.860  -1.446  -0.676  0.00  0.00    +0.000 HD
BRANCH   8  11
ATOM     11  C36 UNK     0       2.617  -3.464   1.130  0.00  0.00    +0.000 C 
BRANCH  11  12
ATOM     12  N12 UNK     0       3.845  -4.260   1.340  0.00  0.00    +0.000 NA
ATOM     13  C39 UNK     0       5.002  -3.794   0.547  0.00  0.00    +0.000 C 
ATOM     14  C42 UNK     0       6.287  -4.543   0.960  0.00  0.00    +0.000 C 
ATOM     15  O5  UNK     0       5.971  -5.726   1.666  0.00  0.00    +0.000 OA
ATOM     16  C43 UNK     0       5.359  -5.401   2.908  0.00  0.00    +0.000 C 
ATOM     17  C40 UNK     0       4.205  -4.389   2.762  0.00  0.00    +0.000 C 
ENDBRANCH  11  12
ENDBRANCH   8  11
ENDBRANCH   6   7
BRANCH   6  18
ATOM     18  C32 UNK     0       4.220   0.805  -0.737  0.00  0.00    +0.000 C 
BRANCH  18  19
ATOM     19  C35 UNK     0       5.525   0.028  -0.975  0.00  0.00    +0.000 C 
BRANCH  19  20
ATOM     20  C44 UNK     0       6.260   0.594  -2.163  0.00  0.00    +0.000 A 
ATOM     21  C49 UNK     0       7.184   1.642  -2.000  0.00  0.00    +0.000 A 
ATOM     22  C51 UNK     0       7.829   2.192  -3.112  0.00  0.00    +0.000 A 
ATOM     23  C52 UNK     0       7.544   1.713  -4.394  0.00  0.00    +0.000 A 
ATOM     24  C50 UNK     0       6.614   0.685  -4.566  0.00  0.00    +0.000 A 
ATOM     25  C48 UNK     0       5.970   0.132  -3.456  0.00  0.00    +0.000 A 
ENDBRANCH  19  20
ENDBRANCH  18  19
ENDBRANCH   6  18
ENDBRANCH   4   6
ENDBRANCH   1   2
BRANCH   1  26
ATOM     26  C27 UNK     0      -1.187   1.649   0.327  0.00  0.00    +0.000 C 
ATOM     27  N9  UNK     0      -1.252   0.353   0.964  0.00  0.00    +0.000 N 
ATOM     28  H73 UNK     0      -0.403  -0.254   0.932  0.00  0.00    +0.000 HD
ATOM     29  O4  UNK     0      -2.204   2.389   0.297  0.00  0.00    +0.000 OA
BRANCH  27  30
ATOM     30  C21 UNK     0      -2.401  -0.221   1.689  0.00  0.00    +0.000 C 
BRANCH  30  31
ATOM     31  C20 UNK     0      -3.646  -0.366   0.835  0.00  0.00    +0.000 C 
ATOM     32  N8  UNK     0      -4.421  -1.577   0.914  0.00  0.00    +0.000 N 
ATOM     33  H62 UNK     0      -4.213  -2.231   1.701  0.00  0.00    +0.000 HD
ATOM     34  O3  UNK     0      -3.995   0.550   0.046  0.00  0.00    +0.000 OA
BRANCH  32  35
ATOM     35  C15 UNK     0      -5.368  -2.064  -0.108  0.00  0.00    +0.000 C 
BRANCH  35  36
ATOM     36  C16 UNK     0      -6.762  -1.493   0.071  0.00  0.00    +0.000 C 
ATOM     37  O2  UNK     0      -7.702  -2.081  -0.441  0.00  0.00    +0.000 OA
BRANCH  36  38
ATOM     38  C13 UNK     0      -7.045  -0.275   0.911  0.00  0.00    +0.000 C 
ATOM     39  O1  UNK     0      -8.144   0.449   0.400  0.00  0.00    +0.000 OA
ATOM     40  C14 UNK     0      -6.889   1.070   0.303  0.00  0.00    +0.000 C 
ATOM     41  C17 UNK     0      -7.150  -0.425   2.425  0.00  0.00    +0.000 C 
ENDBRANCH  36  38
ENDBRANCH  35  36
BRANCH  35  42
ATOM     42  C18 UNK     0      -4.871  -1.860  -1.561  0.00  0.00    +0.000 C 
BRANCH  42  43
ATOM     43  C19 UNK     0      -3.453  -2.418  -1.833  0.00  0.00    +0.000 C 
ATOM     44  C23 UNK     0      -2.998  -2.004  -3.237  0.00  0.00    +0.000 C 
ATOM     45  C22 UNK     0      -3.402  -3.944  -1.695  0.00  0.00    +0.000 C 
ENDBRANCH  42  43
ENDBRANCH  35  42
ENDBRANCH  32  35
ENDBRANCH  30  31
BRANCH  30  46
ATOM     46  C24 UNK     0      -2.651   0.447   3.062  0.00  0.00    +0.000 C 
BRANCH  46  47
ATOM     47  C29 UNK     0      -2.955   1.921   3.008  0.00  0.00    +0.000 A 
ATOM     48  C37 UNK     0      -1.941   2.868   3.240  0.00  0.00    +0.000 A 
ATOM     49  C45 UNK     0      -2.221   4.235   3.143  0.00  0.00    +0.000 A 
ATOM     50  C47 UNK     0      -3.511   4.664   2.813  0.00  0.00    +0.000 A 
ATOM     51  C46 UNK     0      -4.531   3.728   2.613  0.00  0.00    +0.000 A 
ATOM     52  C38 UNK     0      -4.259   2.362   2.723  0.00  0.00    +0.000 A 
ENDBRANCH  46  47
ENDBRANCH  30  46
ENDBRANCH  27  30
ENDBRANCH   1  26
BRANCH   1  53
ATOM     53  C26 UNK     0      -0.027   2.730  -1.671  0.00  0.00    +0.000 C 
BRANCH  53  54
ATOM     54  C28 UNK     0      -0.851   4.031  -1.851  0.00  0.00    +0.000 C 
ATOM     55  C33 UNK     0      -0.860   4.430  -3.335  0.00  0.00    +0.000 C 
ATOM     56  C34 UNK     0      -0.320   5.191  -0.994  0.00  0.00    +0.000 C 
ENDBRANCH  53  54
ENDBRANCH   1  53
TORSDOF 20
