REMARK  Name = C:\Users\Maximilian\Desktop\Conformers\converted_pdb\conformers_pdb\TAK_242_conf_82.pdb
REMARK  25 active torsions:
REMARK  status: ('A' for Active; 'I' for Inactive)
REMARK    1  A    between atoms: C25_1  and  N10_2
REMARK    2  A    between atoms: C25_1  and  C27_26
REMARK    3  A    between atoms: C25_1  and  C26_53
REMARK    4  A    between atoms: C31_4  and  C30_6
REMARK    5  A    between atoms: C30_6  and  C32_7
REMARK    6  A    between atoms: C30_6  and  N11_15
REMARK    7  A    between atoms: C32_7  and  C35_8
REMARK    8  A    between atoms: C35_8  and  C44_9
REMARK    9  A    between atoms: C41_16  and  C36_19
REMARK   10  A    between atoms: C36_19  and  N12_20
REMARK   11  A    between atoms: N9_27  and  C21_30
REMARK   12  A    between atoms: C21_30  and  C24_31
REMARK   13  A    between atoms: C21_30  and  C20_38
REMARK   14  A    between atoms: C24_31  and  C29_32
REMARK   15  A    between atoms: N8_39  and  C15_42
REMARK   16  A    between atoms: C15_42  and  C18_43
REMARK   17  A    between atoms: C15_42  and  C16_47
REMARK   18  A    between atoms: C18_43  and  C19_44
REMARK   19  A    between atoms: C19_44  and  C23_45
REMARK   20  A    between atoms: C19_44  and  C22_46
REMARK   21  A    between atoms: C16_47  and  C13_49
REMARK   22  A    between atoms: C13_49  and  C17_52
REMARK   23  A    between atoms: C26_53  and  C28_54
REMARK   24  A    between atoms: C28_54  and  C33_55
REMARK   25  A    between atoms: C28_54  and  C34_56
REMARK                            x       y       z     vdW  Elec       q    Type
REMARK                         _______ _______ _______ _____ _____    ______ ____
ROOT
ATOM      1  C25 UNK     0       0.362  -1.850  -0.156  0.00  0.00    +0.000 C 
ENDROOT
BRANCH   1   2
ATOM      2  N10 UNK     0       1.496  -1.113  -0.736  0.00  0.00    +0.000 N 
ATOM      3  H77 UNK     0       1.503  -0.073  -0.741  0.00  0.00    +0.000 HD
ATOM      4  C31 UNK     0       2.594  -1.793  -1.368  0.00  0.00    +0.000 C 
ATOM      5  O6  UNK     0       2.531  -3.044  -1.541  0.00  0.00    +0.000 OA
BRANCH   4   6
ATOM      6  C30 UNK     0       3.778  -1.014  -1.918  0.00  0.00    +0.000 C 
BRANCH   6   7
ATOM      7  N11 UNK     0       4.131   0.108  -1.038  0.00  0.00    +0.000 N 
ATOM      8  C41 UNK     0       4.956   1.200  -1.463  0.00  0.00    +0.000 C 
ATOM      9  O7  UNK     0       5.369   1.261  -2.653  0.00  0.00    +0.000 OA
ATOM     10  H87 UNK     0       3.813   0.104  -0.046  0.00  0.00    +0.000 HD
BRANCH   8  11
ATOM     11  C36 UNK     0       5.326   2.287  -0.495  0.00  0.00    +0.000 C 
BRANCH  11  12
ATOM     12  N12 UNK     0       4.710   3.568  -0.895  0.00  0.00    +0.000 NA
ATOM     13  C39 UNK     0       3.256   3.572  -0.625  0.00  0.00    +0.000 C 
ATOM     14  C42 UNK     0       2.642   4.920  -1.057  0.00  0.00    +0.000 C 
ATOM     15  O5  UNK     0       3.628   5.856  -1.454  0.00  0.00    +0.000 OA
ATOM     16  C43 UNK     0       4.584   6.006  -0.425  0.00  0.00    +0.000 C 
ATOM     17  C40 UNK     0       5.350   4.688  -0.180  0.00  0.00    +0.000 C 
ENDBRANCH  11  12
ENDBRANCH   8  11
ENDBRANCH   6   7
BRANCH   6  18
ATOM     18  C32 UNK     0       5.015  -1.909  -2.159  0.00  0.00    +0.000 C 
BRANCH  18  19
ATOM     19  C35 UNK     0       5.634  -2.444  -0.858  0.00  0.00    +0.000 C 
BRANCH  19  20
ATOM     20  C44 UNK     0       6.758  -3.394  -1.172  0.00  0.00    +0.000 A 
ATOM     21  C49 UNK     0       8.060  -2.912  -1.373  0.00  0.00    +0.000 A 
ATOM     22  C51 UNK     0       9.093  -3.795  -1.701  0.00  0.00    +0.000 A 
ATOM     23  C52 UNK     0       8.832  -5.161  -1.841  0.00  0.00    +0.000 A 
ATOM     24  C50 UNK     0       7.536  -5.645  -1.654  0.00  0.00    +0.000 A 
ATOM     25  C48 UNK     0       6.498  -4.767  -1.326  0.00  0.00    +0.000 A 
ENDBRANCH  19  20
ENDBRANCH  18  19
ENDBRANCH   6  18
ENDBRANCH   4   6
ENDBRANCH   1   2
BRANCH   1  26
ATOM     26  C27 UNK     0      -0.883  -1.000  -0.026  0.00  0.00    +0.000 C 
ATOM     27  N9  UNK     0      -2.155  -1.632   0.186  0.00  0.00    +0.000 N 
ATOM     28  H73 UNK     0      -2.168  -2.659   0.386  0.00  0.00    +0.000 HD
ATOM     29  O4  UNK     0      -0.812   0.257  -0.106  0.00  0.00    +0.000 OA
BRANCH  27  30
ATOM     30  C21 UNK     0      -3.425  -0.907   0.043  0.00  0.00    +0.000 C 
BRANCH  30  31
ATOM     31  C20 UNK     0      -3.640   0.035   1.201  0.00  0.00    +0.000 C 
ATOM     32  N8  UNK     0      -4.467   1.192   1.025  0.00  0.00    +0.000 N 
ATOM     33  H62 UNK     0      -5.078   1.232   0.182  0.00  0.00    +0.000 HD
ATOM     34  O3  UNK     0      -3.150  -0.224   2.334  0.00  0.00    +0.000 OA
BRANCH  32  35
ATOM     35  C15 UNK     0      -4.466   2.314   1.972  0.00  0.00    +0.000 C 
BRANCH  35  36
ATOM     36  C16 UNK     0      -4.922   3.605   1.308  0.00  0.00    +0.000 C 
ATOM     37  O2  UNK     0      -5.378   4.510   1.993  0.00  0.00    +0.000 OA
BRANCH  36  38
ATOM     38  C13 UNK     0      -4.663   3.857  -0.162  0.00  0.00    +0.000 C 
ATOM     39  O1  UNK     0      -5.341   4.982  -0.659  0.00  0.00    +0.000 OA
ATOM     40  C14 UNK     0      -5.813   3.723  -1.088  0.00  0.00    +0.000 C 
ATOM     41  C17 UNK     0      -3.256   3.700  -0.743  0.00  0.00    +0.000 C 
ENDBRANCH  36  38
ENDBRANCH  35  36
BRANCH  35  42
ATOM     42  C18 UNK     0      -5.262   1.961   3.258  0.00  0.00    +0.000 C 
BRANCH  42  43
ATOM     43  C19 UNK     0      -6.604   1.220   3.031  0.00  0.00    +0.000 C 
ATOM     44  C23 UNK     0      -7.634   2.085   2.299  0.00  0.00    +0.000 C 
ATOM     45  C22 UNK     0      -7.178   0.759   4.374  0.00  0.00    +0.000 C 
ENDBRANCH  42  43
ENDBRANCH  35  42
ENDBRANCH  32  35
ENDBRANCH  30  31
BRANCH  30  46
ATOM     46  C24 UNK     0      -4.613  -1.888  -0.056  0.00  0.00    +0.000 C 
BRANCH  46  47
ATOM     47  C29 UNK     0      -4.510  -2.752  -1.290  0.00  0.00    +0.000 A 
ATOM     48  C37 UNK     0      -4.787  -2.211  -2.558  0.00  0.00    +0.000 A 
ATOM     49  C45 UNK     0      -4.661  -3.006  -3.702  0.00  0.00    +0.000 A 
ATOM     50  C47 UNK     0      -4.250  -4.337  -3.590  0.00  0.00    +0.000 A 
ATOM     51  C46 UNK     0      -3.964  -4.878  -2.335  0.00  0.00    +0.000 A 
ATOM     52  C38 UNK     0      -4.092  -4.090  -1.187  0.00  0.00    +0.000 A 
ENDBRANCH  46  47
ENDBRANCH  30  46
ENDBRANCH  27  30
ENDBRANCH   1  26
BRANCH   1  53
ATOM     53  C26 UNK     0       0.753  -2.585   1.155  0.00  0.00    +0.000 C 
BRANCH  53  54
ATOM     54  C28 UNK     0       1.100  -1.747   2.417  0.00  0.00    +0.000 C 
ATOM     55  C33 UNK     0      -0.119  -1.055   3.039  0.00  0.00    +0.000 C 
ATOM     56  C34 UNK     0       2.252  -0.755   2.211  0.00  0.00    +0.000 C 
ENDBRANCH  53  54
ENDBRANCH   1  53
TORSDOF 20
