REMARK  Name = C:\Users\Maximilian\Desktop\Conformers\converted_pdb\conformers_pdb\TAK_242_conf_21.pdb
REMARK  25 active torsions:
REMARK  status: ('A' for Active; 'I' for Inactive)
REMARK    1  A    between atoms: C25_1  and  N10_2
REMARK    2  A    between atoms: C25_1  and  C27_26
REMARK    3  A    between atoms: C25_1  and  C26_53
REMARK    4  A    between atoms: C31_4  and  C30_6
REMARK    5  A    between atoms: C30_6  and  C32_7
REMARK    6  A    between atoms: C30_6  and  N11_15
REMARK    7  A    between atoms: C32_7  and  C35_8
REMARK    8  A    between atoms: C35_8  and  C44_9
REMARK    9  A    between atoms: C41_16  and  C36_19
REMARK   10  A    between atoms: C36_19  and  N12_20
REMARK   11  A    between atoms: N9_27  and  C21_30
REMARK   12  A    between atoms: C21_30  and  C24_31
REMARK   13  A    between atoms: C21_30  and  C20_38
REMARK   14  A    between atoms: C24_31  and  C29_32
REMARK   15  A    between atoms: N8_39  and  C15_42
REMARK   16  A    between atoms: C15_42  and  C18_43
REMARK   17  A    between atoms: C15_42  and  C16_47
REMARK   18  A    between atoms: C18_43  and  C19_44
REMARK   19  A    between atoms: C19_44  and  C23_45
REMARK   20  A    between atoms: C19_44  and  C22_46
REMARK   21  A    between atoms: C16_47  and  C13_49
REMARK   22  A    between atoms: C13_49  and  C17_52
REMARK   23  A    between atoms: C26_53  and  C28_54
REMARK   24  A    between atoms: C28_54  and  C33_55
REMARK   25  A    between atoms: C28_54  and  C34_56
REMARK                            x       y       z     vdW  Elec       q    Type
REMARK                         _______ _______ _______ _____ _____    ______ ____
ROOT
ATOM      1  C25 UNK     0       0.409  -1.099  -0.174  0.00  0.00    +0.000 C 
ENDROOT
BRANCH   1   2
ATOM      2  N10 UNK     0       1.794  -0.646  -0.015  0.00  0.00    +0.000 N 
ATOM      3  H77 UNK     0       2.139  -0.481   0.954  0.00  0.00    +0.000 HD
ATOM      4  C31 UNK     0       2.589  -0.223  -1.136  0.00  0.00    +0.000 C 
ATOM      5  O6  UNK     0       2.080  -0.219  -2.291  0.00  0.00    +0.000 OA
BRANCH   4   6
ATOM      6  C30 UNK     0       4.037   0.189  -0.993  0.00  0.00    +0.000 C 
BRANCH   6   7
ATOM      7  N11 UNK     0       4.356   0.650   0.372  0.00  0.00    +0.000 N 
ATOM      8  C41 UNK     0       4.668  -0.188   1.501  0.00  0.00    +0.000 C 
ATOM      9  O7  UNK     0       4.756  -1.438   1.373  0.00  0.00    +0.000 OA
ATOM     10  H87 UNK     0       4.297   1.681   0.539  0.00  0.00    +0.000 HD
BRANCH   8  11
ATOM     11  C36 UNK     0       4.812   0.408   2.874  0.00  0.00    +0.000 C 
BRANCH  11  12
ATOM     12  N12 UNK     0       5.581   1.669   2.841  0.00  0.00    +0.000 NA
ATOM     13  C39 UNK     0       5.464   2.371   4.132  0.00  0.00    +0.000 C 
ATOM     14  C42 UNK     0       6.245   3.702   4.088  0.00  0.00    +0.000 C 
ATOM     15  O5  UNK     0       7.017   3.834   2.907  0.00  0.00    +0.000 OA
ATOM     16  C43 UNK     0       7.847   2.700   2.755  0.00  0.00    +0.000 C 
ATOM     17  C40 UNK     0       7.008   1.425   2.534  0.00  0.00    +0.000 C 
ENDBRANCH  11  12
ENDBRANCH   8  11
ENDBRANCH   6   7
BRANCH   6  18
ATOM     18  C32 UNK     0       4.978  -0.918  -1.518  0.00  0.00    +0.000 C 
BRANCH  18  19
ATOM     19  C35 UNK     0       6.458  -0.514  -1.455  0.00  0.00    +0.000 C 
BRANCH  19  20
ATOM     20  C44 UNK     0       7.334  -1.637  -1.943  0.00  0.00    +0.000 A 
ATOM     21  C49 UNK     0       7.653  -1.752  -3.306  0.00  0.00    +0.000 A 
ATOM     22  C51 UNK     0       8.441  -2.816  -3.758  0.00  0.00    +0.000 A 
ATOM     23  C52 UNK     0       8.903  -3.778  -2.855  0.00  0.00    +0.000 A 
ATOM     24  C50 UNK     0       8.581  -3.676  -1.499  0.00  0.00    +0.000 A 
ATOM     25  C48 UNK     0       7.794  -2.613  -1.043  0.00  0.00    +0.000 A 
ENDBRANCH  19  20
ENDBRANCH  18  19
ENDBRANCH   6  18
ENDBRANCH   4   6
ENDBRANCH   1   2
BRANCH   1  26
ATOM     26  C27 UNK     0      -0.512   0.092  -0.124  0.00  0.00    +0.000 C 
ATOM     27  N9  UNK     0      -1.569   0.224  -1.086  0.00  0.00    +0.000 N 
ATOM     28  H73 UNK     0      -1.647  -0.499  -1.836  0.00  0.00    +0.000 HD
ATOM     29  O4  UNK     0      -0.373   0.946   0.795  0.00  0.00    +0.000 OA
BRANCH  27  30
ATOM     30  C21 UNK     0      -2.677   1.173  -0.919  0.00  0.00    +0.000 C 
BRANCH  30  31
ATOM     31  C20 UNK     0      -3.912   0.459  -0.424  0.00  0.00    +0.000 C 
ATOM     32  N8  UNK     0      -5.078   1.215  -0.066  0.00  0.00    +0.000 N 
ATOM     33  H62 UNK     0      -5.028   2.256  -0.110  0.00  0.00    +0.000 HD
ATOM     34  O3  UNK     0      -3.919  -0.799  -0.327  0.00  0.00    +0.000 OA
BRANCH  32  35
ATOM     35  C15 UNK     0      -6.299   0.593   0.457  0.00  0.00    +0.000 C 
BRANCH  35  36
ATOM     36  C16 UNK     0      -6.298   0.633   1.972  0.00  0.00    +0.000 C 
ATOM     37  O2  UNK     0      -6.550  -0.392   2.588  0.00  0.00    +0.000 OA
BRANCH  36  38
ATOM     38  C13 UNK     0      -6.059   1.900   2.754  0.00  0.00    +0.000 C 
ATOM     39  O1  UNK     0      -4.842   2.540   2.460  0.00  0.00    +0.000 OA
ATOM     40  C14 UNK     0      -4.921   1.880   3.705  0.00  0.00    +0.000 C 
ATOM     41  C17 UNK     0      -7.210   2.857   3.060  0.00  0.00    +0.000 C 
ENDBRANCH  36  38
ENDBRANCH  35  36
BRANCH  35  42
ATOM     42  C18 UNK     0      -7.537   1.282  -0.160  0.00  0.00    +0.000 C 
BRANCH  42  43
ATOM     43  C19 UNK     0      -8.900   0.780   0.381  0.00  0.00    +0.000 C 
ATOM     44  C23 UNK     0      -9.131  -0.707   0.076  0.00  0.00    +0.000 C 
ATOM     45  C22 UNK     0     -10.039   1.616  -0.216  0.00  0.00    +0.000 C 
ENDBRANCH  42  43
ENDBRANCH  35  42
ENDBRANCH  32  35
ENDBRANCH  30  31
BRANCH  30  46
ATOM     46  C24 UNK     0      -2.929   1.948  -2.231  0.00  0.00    +0.000 C 
BRANCH  46  47
ATOM     47  C29 UNK     0      -3.423   1.080  -3.362  0.00  0.00    +0.000 A 
ATOM     48  C37 UNK     0      -2.514   0.507  -4.269  0.00  0.00    +0.000 A 
ATOM     49  C45 UNK     0      -2.974  -0.305  -5.310  0.00  0.00    +0.000 A 
ATOM     50  C47 UNK     0      -4.342  -0.547  -5.458  0.00  0.00    +0.000 A 
ATOM     51  C46 UNK     0      -5.253   0.022  -4.564  0.00  0.00    +0.000 A 
ATOM     52  C38 UNK     0      -4.798   0.835  -3.522  0.00  0.00    +0.000 A 
ENDBRANCH  46  47
ENDBRANCH  30  46
ENDBRANCH  27  30
ENDBRANCH   1  26
BRANCH   1  53
ATOM     53  C26 UNK     0       0.020  -2.103   0.938  0.00  0.00    +0.000 C 
BRANCH  53  54
ATOM     54  C28 UNK     0       0.601  -3.532   0.784  0.00  0.00    +0.000 C 
ATOM     55  C33 UNK     0       2.133  -3.562   0.826  0.00  0.00    +0.000 C 
ATOM     56  C34 UNK     0       0.072  -4.257  -0.462  0.00  0.00    +0.000 C 
ENDBRANCH  53  54
ENDBRANCH   1  53
TORSDOF 20
