REMARK  Name = C:\Users\Maximilian\Desktop\Conformers\converted_pdb\conformers_pdb\TAK_242_conf_97.pdb
REMARK  25 active torsions:
REMARK  status: ('A' for Active; 'I' for Inactive)
REMARK    1  A    between atoms: C25_1  and  N10_2
REMARK    2  A    between atoms: C25_1  and  C27_26
REMARK    3  A    between atoms: C25_1  and  C26_53
REMARK    4  A    between atoms: C31_4  and  C30_6
REMARK    5  A    between atoms: C30_6  and  C32_7
REMARK    6  A    between atoms: C30_6  and  N11_15
REMARK    7  A    between atoms: C32_7  and  C35_8
REMARK    8  A    between atoms: C35_8  and  C44_9
REMARK    9  A    between atoms: C41_16  and  C36_19
REMARK   10  A    between atoms: C36_19  and  N12_20
REMARK   11  A    between atoms: N9_27  and  C21_30
REMARK   12  A    between atoms: C21_30  and  C24_31
REMARK   13  A    between atoms: C21_30  and  C20_38
REMARK   14  A    between atoms: C24_31  and  C29_32
REMARK   15  A    between atoms: N8_39  and  C15_42
REMARK   16  A    between atoms: C15_42  and  C18_43
REMARK   17  A    between atoms: C15_42  and  C16_47
REMARK   18  A    between atoms: C18_43  and  C19_44
REMARK   19  A    between atoms: C19_44  and  C23_45
REMARK   20  A    between atoms: C19_44  and  C22_46
REMARK   21  A    between atoms: C16_47  and  C13_49
REMARK   22  A    between atoms: C13_49  and  C17_52
REMARK   23  A    between atoms: C26_53  and  C28_54
REMARK   24  A    between atoms: C28_54  and  C33_55
REMARK   25  A    between atoms: C28_54  and  C34_56
REMARK                            x       y       z     vdW  Elec       q    Type
REMARK                         _______ _______ _______ _____ _____    ______ ____
ROOT
ATOM      1  C25 UNK     0       0.073   1.094  -1.530  0.00  0.00    +0.000 C 
ENDROOT
BRANCH   1   2
ATOM      2  N10 UNK     0       1.527   1.223  -1.368  0.00  0.00    +0.000 N 
ATOM      3  H77 UNK     0       2.074   1.778  -2.061  0.00  0.00    +0.000 HD
ATOM      4  C31 UNK     0       2.220   0.660  -0.240  0.00  0.00    +0.000 C 
ATOM      5  O6  UNK     0       1.610  -0.090   0.565  0.00  0.00    +0.000 OA
BRANCH   4   6
ATOM      6  C30 UNK     0       3.693   0.926  -0.048  0.00  0.00    +0.000 C 
BRANCH   6   7
ATOM      7  N11 UNK     0       4.000   1.140   1.373  0.00  0.00    +0.000 N 
ATOM      8  C41 UNK     0       3.995   0.114   2.381  0.00  0.00    +0.000 C 
ATOM      9  O7  UNK     0       3.858  -1.096   2.060  0.00  0.00    +0.000 OA
ATOM     10  H87 UNK     0       4.127   2.131   1.681  0.00  0.00    +0.000 HD
BRANCH   8  11
ATOM     11  C36 UNK     0       4.059   0.464   3.843  0.00  0.00    +0.000 C 
BRANCH  11  12
ATOM     12  N12 UNK     0       4.871   1.677   4.088  0.00  0.00    +0.000 NA
ATOM     13  C39 UNK     0       4.583   2.216   5.431  0.00  0.00    +0.000 C 
ATOM     14  C42 UNK     0       5.657   3.235   5.853  0.00  0.00    +0.000 C 
ATOM     15  O5  UNK     0       6.999   2.758   5.824  0.00  0.00    +0.000 OA
ATOM     16  C43 UNK     0       7.150   1.519   5.144  0.00  0.00    +0.000 C 
ATOM     17  C40 UNK     0       6.322   1.454   3.849  0.00  0.00    +0.000 C 
ENDBRANCH  11  12
ENDBRANCH   8  11
ENDBRANCH   6   7
BRANCH   6  18
ATOM     18  C32 UNK     0       4.568  -0.182  -0.668  0.00  0.00    +0.000 C 
BRANCH  18  19
ATOM     19  C35 UNK     0       4.558  -0.131  -2.201  0.00  0.00    +0.000 C 
BRANCH  19  20
ATOM     20  C44 UNK     0       5.442  -1.211  -2.765  0.00  0.00    +0.000 A 
ATOM     21  C49 UNK     0       6.808  -0.967  -2.990  0.00  0.00    +0.000 A 
ATOM     22  C51 UNK     0       7.630  -1.986  -3.489  0.00  0.00    +0.000 A 
ATOM     23  C52 UNK     0       7.102  -3.251  -3.759  0.00  0.00    +0.000 A 
ATOM     24  C50 UNK     0       5.749  -3.502  -3.519  0.00  0.00    +0.000 A 
ATOM     25  C48 UNK     0       4.922  -2.492  -3.021  0.00  0.00    +0.000 A 
ENDBRANCH  19  20
ENDBRANCH  18  19
ENDBRANCH   6  18
ENDBRANCH   4   6
ENDBRANCH   1   2
BRANCH   1  26
ATOM     26  C27 UNK     0      -0.306  -0.358  -1.696  0.00  0.00    +0.000 C 
ATOM     27  N9  UNK     0      -1.280  -0.953  -0.828  0.00  0.00    +0.000 N 
ATOM     28  H73 UNK     0      -1.531  -0.443   0.048  0.00  0.00    +0.000 HD
ATOM     29  O4  UNK     0       0.238  -1.046  -2.606  0.00  0.00    +0.000 OA
BRANCH  27  30
ATOM     30  C21 UNK     0      -1.835  -2.294  -1.048  0.00  0.00    +0.000 C 
BRANCH  30  31
ATOM     31  C20 UNK     0      -3.349  -2.296  -1.018  0.00  0.00    +0.000 C 
ATOM     32  N8  UNK     0      -4.118  -1.114  -0.720  0.00  0.00    +0.000 N 
ATOM     33  H62 UNK     0      -3.674  -0.175  -0.815  0.00  0.00    +0.000 HD
ATOM     34  O3  UNK     0      -3.943  -3.376  -1.277  0.00  0.00    +0.000 OA
BRANCH  32  35
ATOM     35  C15 UNK     0      -5.574  -1.177  -0.545  0.00  0.00    +0.000 C 
BRANCH  35  36
ATOM     36  C16 UNK     0      -6.107  -0.278   0.562  0.00  0.00    +0.000 C 
ATOM     37  O2  UNK     0      -7.315  -0.295   0.764  0.00  0.00    +0.000 OA
BRANCH  36  38
ATOM     38  C13 UNK     0      -5.245   0.606   1.453  0.00  0.00    +0.000 C 
ATOM     39  O1  UNK     0      -5.994   1.146   2.523  0.00  0.00    +0.000 OA
ATOM     40  C14 UNK     0      -5.577   2.055   1.528  0.00  0.00    +0.000 C 
ATOM     41  C17 UNK     0      -3.860   0.169   1.936  0.00  0.00    +0.000 C 
ENDBRANCH  36  38
ENDBRANCH  35  36
BRANCH  35  42
ATOM     42  C18 UNK     0      -6.301  -0.960  -1.898  0.00  0.00    +0.000 C 
BRANCH  42  43
ATOM     43  C19 UNK     0      -5.861   0.271  -2.731  0.00  0.00    +0.000 C 
ATOM     44  C23 UNK     0      -6.158   1.604  -2.028  0.00  0.00    +0.000 C 
ATOM     45  C22 UNK     0      -6.562   0.242  -4.097  0.00  0.00    +0.000 C 
ENDBRANCH  42  43
ENDBRANCH  35  42
ENDBRANCH  32  35
ENDBRANCH  30  31
BRANCH  30  46
ATOM     46  C24 UNK     0      -1.242  -3.289  -0.029  0.00  0.00    +0.000 C 
BRANCH  46  47
ATOM     47  C29 UNK     0      -1.721  -3.062   1.387  0.00  0.00    +0.000 A 
ATOM     48  C37 UNK     0      -1.040  -2.169   2.231  0.00  0.00    +0.000 A 
ATOM     49  C45 UNK     0      -1.487  -1.953   3.537  0.00  0.00    +0.000 A 
ATOM     50  C47 UNK     0      -2.611  -2.632   4.014  0.00  0.00    +0.000 A 
ATOM     51  C46 UNK     0      -3.296  -3.520   3.184  0.00  0.00    +0.000 A 
ATOM     52  C38 UNK     0      -2.858  -3.735   1.872  0.00  0.00    +0.000 A 
ENDBRANCH  46  47
ENDBRANCH  30  46
ENDBRANCH  27  30
ENDBRANCH   1  26
BRANCH   1  53
ATOM     53  C26 UNK     0      -0.403   1.911  -2.754  0.00  0.00    +0.000 C 
BRANCH  53  54
ATOM     54  C28 UNK     0      -1.945   2.000  -2.864  0.00  0.00    +0.000 C 
ATOM     55  C33 UNK     0      -2.350   2.361  -4.300  0.00  0.00    +0.000 C 
ATOM     56  C34 UNK     0      -2.520   3.030  -1.878  0.00  0.00    +0.000 C 
ENDBRANCH  53  54
ENDBRANCH   1  53
TORSDOF 20
