REMARK  Name = C:\Users\Maximilian\Desktop\Conformers\converted_pdb\conformers_pdb\TAK_242_conf_18.pdb
REMARK  25 active torsions:
REMARK  status: ('A' for Active; 'I' for Inactive)
REMARK    1  A    between atoms: C25_1  and  N10_2
REMARK    2  A    between atoms: C25_1  and  C27_26
REMARK    3  A    between atoms: C25_1  and  C26_53
REMARK    4  A    between atoms: C31_4  and  C30_6
REMARK    5  A    between atoms: C30_6  and  C32_7
REMARK    6  A    between atoms: C30_6  and  N11_15
REMARK    7  A    between atoms: C32_7  and  C35_8
REMARK    8  A    between atoms: C35_8  and  C44_9
REMARK    9  A    between atoms: C41_16  and  C36_19
REMARK   10  A    between atoms: C36_19  and  N12_20
REMARK   11  A    between atoms: N9_27  and  C21_30
REMARK   12  A    between atoms: C21_30  and  C24_31
REMARK   13  A    between atoms: C21_30  and  C20_38
REMARK   14  A    between atoms: C24_31  and  C29_32
REMARK   15  A    between atoms: N8_39  and  C15_42
REMARK   16  A    between atoms: C15_42  and  C18_43
REMARK   17  A    between atoms: C15_42  and  C16_47
REMARK   18  A    between atoms: C18_43  and  C19_44
REMARK   19  A    between atoms: C19_44  and  C23_45
REMARK   20  A    between atoms: C19_44  and  C22_46
REMARK   21  A    between atoms: C16_47  and  C13_49
REMARK   22  A    between atoms: C13_49  and  C17_52
REMARK   23  A    between atoms: C26_53  and  C28_54
REMARK   24  A    between atoms: C28_54  and  C33_55
REMARK   25  A    between atoms: C28_54  and  C34_56
REMARK                            x       y       z     vdW  Elec       q    Type
REMARK                         _______ _______ _______ _____ _____    ______ ____
ROOT
ATOM      1  C25 UNK     0      -0.205   0.569  -1.678  0.00  0.00    +0.000 C 
ENDROOT
BRANCH   1   2
ATOM      2  N10 UNK     0      -1.526   0.441  -1.048  0.00  0.00    +0.000 N 
ATOM      3  H77 UNK     0      -1.856   1.200  -0.415  0.00  0.00    +0.000 HD
ATOM      4  C31 UNK     0      -2.354  -0.716  -1.251  0.00  0.00    +0.000 C 
ATOM      5  O6  UNK     0      -1.853  -1.756  -1.758  0.00  0.00    +0.000 OA
BRANCH   4   6
ATOM      6  C30 UNK     0      -3.821  -0.717  -0.877  0.00  0.00    +0.000 C 
BRANCH   6   7
ATOM      7  N11 UNK     0      -4.114   0.354   0.080  0.00  0.00    +0.000 N 
ATOM      8  C41 UNK     0      -3.744   0.275   1.464  0.00  0.00    +0.000 C 
ATOM      9  O7  UNK     0      -3.184  -0.761   1.916  0.00  0.00    +0.000 OA
ATOM     10  H87 UNK     0      -4.536   1.246  -0.274  0.00  0.00    +0.000 HD
BRANCH   8  11
ATOM     11  C36 UNK     0      -3.963   1.457   2.364  0.00  0.00    +0.000 C 
BRANCH  11  12
ATOM     12  N12 UNK     0      -4.385   1.020   3.714  0.00  0.00    +0.000 NA
ATOM     13  C39 UNK     0      -5.793   0.549   3.746  0.00  0.00    +0.000 C 
ATOM     14  C42 UNK     0      -6.783   1.655   4.166  0.00  0.00    +0.000 C 
ATOM     15  O5  UNK     0      -6.290   2.924   3.793  0.00  0.00    +0.000 OA
ATOM     16  C43 UNK     0      -5.149   3.252   4.571  0.00  0.00    +0.000 C 
ATOM     17  C40 UNK     0      -4.155   2.073   4.725  0.00  0.00    +0.000 C 
ENDBRANCH  11  12
ENDBRANCH   8  11
ENDBRANCH   6   7
BRANCH   6  18
ATOM     18  C32 UNK     0      -4.718  -0.553  -2.125  0.00  0.00    +0.000 C 
BRANCH  18  19
ATOM     19  C35 UNK     0      -4.737  -1.782  -3.056  0.00  0.00    +0.000 C 
BRANCH  19  20
ATOM     20  C44 UNK     0      -5.297  -3.007  -2.379  0.00  0.00    +0.000 A 
ATOM     21  C49 UNK     0      -6.675  -3.100  -2.119  0.00  0.00    +0.000 A 
ATOM     22  C51 UNK     0      -7.195  -4.217  -1.460  0.00  0.00    +0.000 A 
ATOM     23  C52 UNK     0      -6.344  -5.248  -1.051  0.00  0.00    +0.000 A 
ATOM     24  C50 UNK     0      -4.970  -5.161  -1.299  0.00  0.00    +0.000 A 
ATOM     25  C48 UNK     0      -4.447  -4.048  -1.965  0.00  0.00    +0.000 A 
ENDBRANCH  19  20
ENDBRANCH  18  19
ENDBRANCH   6  18
ENDBRANCH   4   6
ENDBRANCH   1   2
BRANCH   1  26
ATOM     26  C27 UNK     0       0.748  -0.439  -1.083  0.00  0.00    +0.000 C 
ATOM     27  N9  UNK     0       1.793  -1.000  -1.893  0.00  0.00    +0.000 N 
ATOM     28  H73 UNK     0       1.869  -0.686  -2.887  0.00  0.00    +0.000 HD
ATOM     29  O4  UNK     0       0.661  -0.741   0.139  0.00  0.00    +0.000 OA
BRANCH  27  30
ATOM     30  C21 UNK     0       2.725  -2.012  -1.382  0.00  0.00    +0.000 C 
BRANCH  30  31
ATOM     31  C20 UNK     0       3.515  -1.461  -0.224  0.00  0.00    +0.000 C 
ATOM     32  N8  UNK     0       4.037  -0.122  -0.266  0.00  0.00    +0.000 N 
ATOM     33  H62 UNK     0       3.848   0.451  -1.115  0.00  0.00    +0.000 HD
ATOM     34  O3  UNK     0       3.729  -2.199   0.776  0.00  0.00    +0.000 OA
BRANCH  32  35
ATOM     35  C15 UNK     0       4.738   0.470   0.879  0.00  0.00    +0.000 C 
BRANCH  35  36
ATOM     36  C16 UNK     0       5.644   1.612   0.451  0.00  0.00    +0.000 C 
ATOM     37  O2  UNK     0       6.684   1.793   1.067  0.00  0.00    +0.000 OA
BRANCH  36  38
ATOM     38  C13 UNK     0       5.339   2.520  -0.713  0.00  0.00    +0.000 C 
ATOM     39  O1  UNK     0       5.436   3.875  -0.343  0.00  0.00    +0.000 OA
ATOM     40  C14 UNK     0       4.151   3.406  -0.672  0.00  0.00    +0.000 C 
ATOM     41  C17 UNK     0       6.047   2.267  -2.044  0.00  0.00    +0.000 C 
ENDBRANCH  36  38
ENDBRANCH  35  36
BRANCH  35  42
ATOM     42  C18 UNK     0       3.719   0.883   1.965  0.00  0.00    +0.000 C 
BRANCH  42  43
ATOM     43  C19 UNK     0       4.374   1.392   3.281  0.00  0.00    +0.000 C 
ATOM     44  C23 UNK     0       3.626   0.852   4.510  0.00  0.00    +0.000 C 
ATOM     45  C22 UNK     0       4.407   2.929   3.337  0.00  0.00    +0.000 C 
ENDBRANCH  42  43
ENDBRANCH  35  42
ENDBRANCH  32  35
ENDBRANCH  30  31
BRANCH  30  46
ATOM     46  C24 UNK     0       3.673  -2.479  -2.504  0.00  0.00    +0.000 C 
BRANCH  46  47
ATOM     47  C29 UNK     0       4.543  -3.624  -2.060  0.00  0.00    +0.000 A 
ATOM     48  C37 UNK     0       5.832  -3.383  -1.554  0.00  0.00    +0.000 A 
ATOM     49  C45 UNK     0       6.615  -4.444  -1.092  0.00  0.00    +0.000 A 
ATOM     50  C47 UNK     0       6.121  -5.753  -1.134  0.00  0.00    +0.000 A 
ATOM     51  C46 UNK     0       4.839  -5.998  -1.627  0.00  0.00    +0.000 A 
ATOM     52  C38 UNK     0       4.049  -4.939  -2.084  0.00  0.00    +0.000 A 
ENDBRANCH  46  47
ENDBRANCH  30  46
ENDBRANCH  27  30
ENDBRANCH   1  26
BRANCH   1  53
ATOM     53  C26 UNK     0       0.373   1.994  -1.494  0.00  0.00    +0.000 C 
BRANCH  53  54
ATOM     54  C28 UNK     0      -0.217   3.047  -2.467  0.00  0.00    +0.000 C 
ATOM     55  C33 UNK     0       0.594   4.349  -2.390  0.00  0.00    +0.000 C 
ATOM     56  C34 UNK     0      -1.700   3.340  -2.194  0.00  0.00    +0.000 C 
ENDBRANCH  53  54
ENDBRANCH   1  53
TORSDOF 20
