REMARK  Name = C:\Users\Maximilian\Desktop\Conformers\converted_pdb\conformers_pdb\TAK_242_conf_53.pdb
REMARK  25 active torsions:
REMARK  status: ('A' for Active; 'I' for Inactive)
REMARK    1  A    between atoms: C25_1  and  N10_2
REMARK    2  A    between atoms: C25_1  and  C27_26
REMARK    3  A    between atoms: C25_1  and  C26_53
REMARK    4  A    between atoms: C31_4  and  C30_6
REMARK    5  A    between atoms: C30_6  and  C32_7
REMARK    6  A    between atoms: C30_6  and  N11_15
REMARK    7  A    between atoms: C32_7  and  C35_8
REMARK    8  A    between atoms: C35_8  and  C44_9
REMARK    9  A    between atoms: C41_16  and  C36_19
REMARK   10  A    between atoms: C36_19  and  N12_20
REMARK   11  A    between atoms: N9_27  and  C21_30
REMARK   12  A    between atoms: C21_30  and  C24_31
REMARK   13  A    between atoms: C21_30  and  C20_38
REMARK   14  A    between atoms: C24_31  and  C29_32
REMARK   15  A    between atoms: N8_39  and  C15_42
REMARK   16  A    between atoms: C15_42  and  C18_43
REMARK   17  A    between atoms: C15_42  and  C16_47
REMARK   18  A    between atoms: C18_43  and  C19_44
REMARK   19  A    between atoms: C19_44  and  C23_45
REMARK   20  A    between atoms: C19_44  and  C22_46
REMARK   21  A    between atoms: C16_47  and  C13_49
REMARK   22  A    between atoms: C13_49  and  C17_52
REMARK   23  A    between atoms: C26_53  and  C28_54
REMARK   24  A    between atoms: C28_54  and  C33_55
REMARK   25  A    between atoms: C28_54  and  C34_56
REMARK                            x       y       z     vdW  Elec       q    Type
REMARK                         _______ _______ _______ _____ _____    ______ ____
ROOT
ATOM      1  C25 UNK     0       1.384   0.962  -0.858  0.00  0.00    +0.000 C 
ENDROOT
BRANCH   1   2
ATOM      2  N10 UNK     0       2.666   0.486  -0.326  0.00  0.00    +0.000 N 
ATOM      3  H77 UNK     0       3.312  -0.029  -0.965  0.00  0.00    +0.000 HD
ATOM      4  C31 UNK     0       3.117   0.813   1.002  0.00  0.00    +0.000 C 
ATOM      5  O6  UNK     0       2.401   1.535   1.749  0.00  0.00    +0.000 OA
BRANCH   4   6
ATOM      6  C30 UNK     0       4.446   0.319   1.525  0.00  0.00    +0.000 C 
BRANCH   6   7
ATOM      7  N11 UNK     0       4.926  -0.846   0.768  0.00  0.00    +0.000 N 
ATOM      8  C41 UNK     0       4.263  -2.116   0.830  0.00  0.00    +0.000 C 
ATOM      9  O7  UNK     0       3.285  -2.282   1.608  0.00  0.00    +0.000 OA
ATOM     10  H87 UNK     0       5.743  -0.751   0.124  0.00  0.00    +0.000 HD
BRANCH   8  11
ATOM     11  C36 UNK     0       4.694  -3.248  -0.058  0.00  0.00    +0.000 C 
BRANCH  11  12
ATOM     12  N12 UNK     0       4.909  -4.480   0.734  0.00  0.00    +0.000 NA
ATOM     13  C39 UNK     0       6.130  -4.416   1.572  0.00  0.00    +0.000 C 
ATOM     14  C42 UNK     0       7.408  -4.678   0.756  0.00  0.00    +0.000 C 
ATOM     15  O5  UNK     0       7.322  -5.903   0.057  0.00  0.00    +0.000 OA
ATOM     16  C43 UNK     0       6.247  -5.857  -0.858  0.00  0.00    +0.000 C 
ATOM     17  C40 UNK     0       4.912  -5.690  -0.115  0.00  0.00    +0.000 C 
ENDBRANCH  11  12
ENDBRANCH   8  11
ENDBRANCH   6   7
BRANCH   6  18
ATOM     18  C32 UNK     0       5.508   1.447   1.605  0.00  0.00    +0.000 C 
BRANCH  18  19
ATOM     19  C35 UNK     0       5.956   2.080   0.266  0.00  0.00    +0.000 C 
BRANCH  19  20
ATOM     20  C44 UNK     0       4.880   2.859  -0.455  0.00  0.00    +0.000 A 
ATOM     21  C49 UNK     0       4.219   3.930   0.175  0.00  0.00    +0.000 A 
ATOM     22  C51 UNK     0       3.259   4.674  -0.520  0.00  0.00    +0.000 A 
ATOM     23  C52 UNK     0       2.979   4.381  -1.857  0.00  0.00    +0.000 A 
ATOM     24  C50 UNK     0       3.654   3.343  -2.500  0.00  0.00    +0.000 A 
ATOM     25  C48 UNK     0       4.596   2.581  -1.802  0.00  0.00    +0.000 A 
ENDBRANCH  19  20
ENDBRANCH  18  19
ENDBRANCH   6  18
ENDBRANCH   4   6
ENDBRANCH   1   2
BRANCH   1  26
ATOM     26  C27 UNK     0       0.252   0.430  -0.019  0.00  0.00    +0.000 C 
ATOM     27  N9  UNK     0      -0.733   1.334   0.503  0.00  0.00    +0.000 N 
ATOM     28  H73 UNK     0      -0.730   2.316   0.152  0.00  0.00    +0.000 HD
ATOM     29  O4  UNK     0       0.165  -0.810   0.201  0.00  0.00    +0.000 OA
BRANCH  27  30
ATOM     30  C21 UNK     0      -1.850   0.881   1.337  0.00  0.00    +0.000 C 
BRANCH  30  31
ATOM     31  C20 UNK     0      -3.023   0.467   0.486  0.00  0.00    +0.000 C 
ATOM     32  N8  UNK     0      -4.094  -0.282   1.074  0.00  0.00    +0.000 N 
ATOM     33  H62 UNK     0      -4.040  -0.504   2.090  0.00  0.00    +0.000 HD
ATOM     34  O3  UNK     0      -3.082   0.813  -0.720  0.00  0.00    +0.000 OA
BRANCH  32  35
ATOM     35  C15 UNK     0      -5.207  -0.826   0.293  0.00  0.00    +0.000 C 
BRANCH  35  36
ATOM     36  C16 UNK     0      -4.884  -2.249  -0.119  0.00  0.00    +0.000 C 
ATOM     37  O2  UNK     0      -4.818  -2.517  -1.309  0.00  0.00    +0.000 OA
BRANCH  36  38
ATOM     38  C13 UNK     0      -4.517  -3.315   0.889  0.00  0.00    +0.000 C 
ATOM     39  O1  UNK     0      -4.849  -4.606   0.426  0.00  0.00    +0.000 OA
ATOM     40  C14 UNK     0      -5.592  -4.120   1.521  0.00  0.00    +0.000 C 
ATOM     41  C17 UNK     0      -3.137  -3.295   1.551  0.00  0.00    +0.000 C 
ENDBRANCH  36  38
ENDBRANCH  35  36
BRANCH  35  42
ATOM     42  C18 UNK     0      -6.523  -0.710   1.107  0.00  0.00    +0.000 C 
BRANCH  42  43
ATOM     43  C19 UNK     0      -7.819  -0.530   0.272  0.00  0.00    +0.000 C 
ATOM     44  C23 UNK     0      -8.111  -1.722  -0.649  0.00  0.00    +0.000 C 
ATOM     45  C22 UNK     0      -7.844   0.790  -0.516  0.00  0.00    +0.000 C 
ENDBRANCH  42  43
ENDBRANCH  35  42
ENDBRANCH  32  35
ENDBRANCH  30  31
BRANCH  30  46
ATOM     46  C24 UNK     0      -2.238   1.956   2.375  0.00  0.00    +0.000 C 
BRANCH  46  47
ATOM     47  C29 UNK     0      -2.815   3.213   1.764  0.00  0.00    +0.000 A 
ATOM     48  C37 UNK     0      -4.187   3.298   1.467  0.00  0.00    +0.000 A 
ATOM     49  C45 UNK     0      -4.716   4.462   0.899  0.00  0.00    +0.000 A 
ATOM     50  C47 UNK     0      -3.886   5.555   0.637  0.00  0.00    +0.000 A 
ATOM     51  C46 UNK     0      -2.523   5.483   0.942  0.00  0.00    +0.000 A 
ATOM     52  C38 UNK     0      -1.989   4.321   1.507  0.00  0.00    +0.000 A 
ENDBRANCH  46  47
ENDBRANCH  30  46
ENDBRANCH  27  30
ENDBRANCH   1  26
BRANCH   1  53
ATOM     53  C26 UNK     0       1.227   0.537  -2.337  0.00  0.00    +0.000 C 
BRANCH  53  54
ATOM     54  C28 UNK     0      -0.063   1.051  -3.021  0.00  0.00    +0.000 C 
ATOM     55  C33 UNK     0      -0.220   0.394  -4.400  0.00  0.00    +0.000 C 
ATOM     56  C34 UNK     0      -0.074   2.579  -3.165  0.00  0.00    +0.000 C 
ENDBRANCH  53  54
ENDBRANCH   1  53
TORSDOF 20
