REMARK  Name = C:\Users\Maximilian\Desktop\Conformers\converted_pdb\conformers_pdb\TAK_242_conf_40.pdb
REMARK  25 active torsions:
REMARK  status: ('A' for Active; 'I' for Inactive)
REMARK    1  A    between atoms: C25_1  and  N10_2
REMARK    2  A    between atoms: C25_1  and  C27_26
REMARK    3  A    between atoms: C25_1  and  C26_53
REMARK    4  A    between atoms: C31_4  and  C30_6
REMARK    5  A    between atoms: C30_6  and  C32_7
REMARK    6  A    between atoms: C30_6  and  N11_15
REMARK    7  A    between atoms: C32_7  and  C35_8
REMARK    8  A    between atoms: C35_8  and  C44_9
REMARK    9  A    between atoms: C41_16  and  C36_19
REMARK   10  A    between atoms: C36_19  and  N12_20
REMARK   11  A    between atoms: N9_27  and  C21_30
REMARK   12  A    between atoms: C21_30  and  C24_31
REMARK   13  A    between atoms: C21_30  and  C20_38
REMARK   14  A    between atoms: C24_31  and  C29_32
REMARK   15  A    between atoms: N8_39  and  C15_42
REMARK   16  A    between atoms: C15_42  and  C18_43
REMARK   17  A    between atoms: C15_42  and  C16_47
REMARK   18  A    between atoms: C18_43  and  C19_44
REMARK   19  A    between atoms: C19_44  and  C23_45
REMARK   20  A    between atoms: C19_44  and  C22_46
REMARK   21  A    between atoms: C16_47  and  C13_49
REMARK   22  A    between atoms: C13_49  and  C17_52
REMARK   23  A    between atoms: C26_53  and  C28_54
REMARK   24  A    between atoms: C28_54  and  C33_55
REMARK   25  A    between atoms: C28_54  and  C34_56
REMARK                            x       y       z     vdW  Elec       q    Type
REMARK                         _______ _______ _______ _____ _____    ______ ____
ROOT
ATOM      1  C25 UNK     0       0.288  -0.552   1.761  0.00  0.00    +0.000 C 
ENDROOT
BRANCH   1   2
ATOM      2  N10 UNK     0       1.473  -0.374   0.914  0.00  0.00    +0.000 N 
ATOM      3  H77 UNK     0       2.017   0.517   1.005  0.00  0.00    +0.000 HD
ATOM      4  C31 UNK     0       1.837  -1.283  -0.133  0.00  0.00    +0.000 C 
ATOM      5  O6  UNK     0       1.114  -2.287  -0.381  0.00  0.00    +0.000 OA
BRANCH   4   6
ATOM      6  C30 UNK     0       3.111  -1.031  -0.902  0.00  0.00    +0.000 C 
BRANCH   6   7
ATOM      7  N11 UNK     0       4.236  -1.110   0.034  0.00  0.00    +0.000 N 
ATOM      8  C41 UNK     0       5.223  -0.075   0.168  0.00  0.00    +0.000 C 
ATOM      9  O7  UNK     0       5.115   1.003  -0.478  0.00  0.00    +0.000 OA
ATOM     10  H87 UNK     0       4.359  -1.994   0.579  0.00  0.00    +0.000 HD
BRANCH   8  11
ATOM     11  C36 UNK     0       6.399  -0.271   1.091  0.00  0.00    +0.000 C 
BRANCH  11  12
ATOM     12  N12 UNK     0       7.579  -0.871   0.431  0.00  0.00    +0.000 NA
ATOM     13  C39 UNK     0       7.341  -2.242  -0.054  0.00  0.00    +0.000 C 
ATOM     14  C42 UNK     0       8.605  -2.795  -0.751  0.00  0.00    +0.000 C 
ATOM     15  O5  UNK     0       9.706  -1.922  -0.593  0.00  0.00    +0.000 OA
ATOM     16  C43 UNK     0       9.421  -0.675  -1.201  0.00  0.00    +0.000 C 
ATOM     17  C40 UNK     0       8.136  -0.029  -0.639  0.00  0.00    +0.000 C 
ENDBRANCH  11  12
ENDBRANCH   8  11
ENDBRANCH   6   7
BRANCH   6  18
ATOM     18  C32 UNK     0       3.346  -2.020  -2.064  0.00  0.00    +0.000 C 
BRANCH  18  19
ATOM     19  C35 UNK     0       2.368  -1.847  -3.242  0.00  0.00    +0.000 C 
BRANCH  19  20
ATOM     20  C44 UNK     0       2.586  -0.549  -3.975  0.00  0.00    +0.000 A 
ATOM     21  C49 UNK     0       3.659  -0.417  -4.872  0.00  0.00    +0.000 A 
ATOM     22  C51 UNK     0       3.866   0.791  -5.548  0.00  0.00    +0.000 A 
ATOM     23  C52 UNK     0       3.010   1.875  -5.332  0.00  0.00    +0.000 A 
ATOM     24  C50 UNK     0       1.944   1.750  -4.436  0.00  0.00    +0.000 A 
ATOM     25  C48 UNK     0       1.733   0.547  -3.755  0.00  0.00    +0.000 A 
ENDBRANCH  19  20
ENDBRANCH  18  19
ENDBRANCH   6  18
ENDBRANCH   4   6
ENDBRANCH   1   2
BRANCH   1  26
ATOM     26  C27 UNK     0      -0.855   0.278   1.224  0.00  0.00    +0.000 C 
ATOM     27  N9  UNK     0      -2.111   0.319   1.930  0.00  0.00    +0.000 N 
ATOM     28  H73 UNK     0      -2.260  -0.352   2.715  0.00  0.00    +0.000 HD
ATOM     29  O4  UNK     0      -0.730   0.877   0.121  0.00  0.00    +0.000 OA
BRANCH  27  30
ATOM     30  C21 UNK     0      -3.206   1.258   1.641  0.00  0.00    +0.000 C 
BRANCH  30  31
ATOM     31  C20 UNK     0      -3.958   0.844   0.399  0.00  0.00    +0.000 C 
ATOM     32  N8  UNK     0      -5.392   0.874   0.382  0.00  0.00    +0.000 N 
ATOM     33  H62 UNK     0      -5.897   1.277   1.206  0.00  0.00    +0.000 HD
ATOM     34  O3  UNK     0      -3.329   0.482  -0.631  0.00  0.00    +0.000 OA
BRANCH  32  35
ATOM     35  C15 UNK     0      -6.168   0.430  -0.777  0.00  0.00    +0.000 C 
BRANCH  35  36
ATOM     36  C16 UNK     0      -7.506  -0.096  -0.306  0.00  0.00    +0.000 C 
ATOM     37  O2  UNK     0      -8.424   0.679  -0.086  0.00  0.00    +0.000 OA
BRANCH  36  38
ATOM     38  C13 UNK     0      -7.699  -1.573  -0.054  0.00  0.00    +0.000 C 
ATOM     39  O1  UNK     0      -8.868  -1.854   0.684  0.00  0.00    +0.000 OA
ATOM     40  C14 UNK     0      -7.637  -2.042   1.350  0.00  0.00    +0.000 C 
ATOM     41  C17 UNK     0      -7.460  -2.591  -1.169  0.00  0.00    +0.000 C 
ENDBRANCH  36  38
ENDBRANCH  35  36
BRANCH  35  42
ATOM     42  C18 UNK     0      -6.289   1.598  -1.790  0.00  0.00    +0.000 C 
BRANCH  42  43
ATOM     43  C19 UNK     0      -6.780   1.240  -3.216  0.00  0.00    +0.000 C 
ATOM     44  C23 UNK     0      -8.279   0.920  -3.277  0.00  0.00    +0.000 C 
ATOM     45  C22 UNK     0      -5.949   0.131  -3.874  0.00  0.00    +0.000 C 
ENDBRANCH  42  43
ENDBRANCH  35  42
ENDBRANCH  32  35
ENDBRANCH  30  31
BRANCH  30  46
ATOM     46  C24 UNK     0      -2.728   2.724   1.547  0.00  0.00    +0.000 C 
BRANCH  46  47
ATOM     47  C29 UNK     0      -1.928   3.126   2.761  0.00  0.00    +0.000 A 
ATOM     48  C37 UNK     0      -2.569   3.361   3.987  0.00  0.00    +0.000 A 
ATOM     49  C45 UNK     0      -1.820   3.692   5.120  0.00  0.00    +0.000 A 
ATOM     50  C47 UNK     0      -0.430   3.790   5.037  0.00  0.00    +0.000 A 
ATOM     51  C46 UNK     0       0.218   3.559   3.823  0.00  0.00    +0.000 A 
ATOM     52  C38 UNK     0      -0.527   3.230   2.690  0.00  0.00    +0.000 A 
ENDBRANCH  46  47
ENDBRANCH  30  46
ENDBRANCH  27  30
ENDBRANCH   1  26
BRANCH   1  53
ATOM     53  C26 UNK     0       0.640  -0.171   3.220  0.00  0.00    +0.000 C 
BRANCH  53  54
ATOM     54  C28 UNK     0       1.296  -1.322   4.019  0.00  0.00    +0.000 C 
ATOM     55  C33 UNK     0       1.479  -0.903   5.485  0.00  0.00    +0.000 C 
ATOM     56  C34 UNK     0       2.645  -1.761   3.432  0.00  0.00    +0.000 C 
ENDBRANCH  53  54
ENDBRANCH   1  53
TORSDOF 20
