REMARK  Name = C:\Users\Maximilian\Desktop\Conformers\converted_pdb\conformers_pdb\TAK_242_conf_85.pdb
REMARK  25 active torsions:
REMARK  status: ('A' for Active; 'I' for Inactive)
REMARK    1  A    between atoms: C25_1  and  N10_2
REMARK    2  A    between atoms: C25_1  and  C27_26
REMARK    3  A    between atoms: C25_1  and  C26_53
REMARK    4  A    between atoms: C31_4  and  C30_6
REMARK    5  A    between atoms: C30_6  and  C32_7
REMARK    6  A    between atoms: C30_6  and  N11_15
REMARK    7  A    between atoms: C32_7  and  C35_8
REMARK    8  A    between atoms: C35_8  and  C44_9
REMARK    9  A    between atoms: C41_16  and  C36_19
REMARK   10  A    between atoms: C36_19  and  N12_20
REMARK   11  A    between atoms: N9_27  and  C21_30
REMARK   12  A    between atoms: C21_30  and  C24_31
REMARK   13  A    between atoms: C21_30  and  C20_38
REMARK   14  A    between atoms: C24_31  and  C29_32
REMARK   15  A    between atoms: N8_39  and  C15_42
REMARK   16  A    between atoms: C15_42  and  C18_43
REMARK   17  A    between atoms: C15_42  and  C16_47
REMARK   18  A    between atoms: C18_43  and  C19_44
REMARK   19  A    between atoms: C19_44  and  C23_45
REMARK   20  A    between atoms: C19_44  and  C22_46
REMARK   21  A    between atoms: C16_47  and  C13_49
REMARK   22  A    between atoms: C13_49  and  C17_52
REMARK   23  A    between atoms: C26_53  and  C28_54
REMARK   24  A    between atoms: C28_54  and  C33_55
REMARK   25  A    between atoms: C28_54  and  C34_56
REMARK                            x       y       z     vdW  Elec       q    Type
REMARK                         _______ _______ _______ _____ _____    ______ ____
ROOT
ATOM      1  C25 UNK     0       1.427   1.657   0.983  0.00  0.00    +0.000 C 
ENDROOT
BRANCH   1   2
ATOM      2  N10 UNK     0       0.222   1.534   0.157  0.00  0.00    +0.000 N 
ATOM      3  H77 UNK     0       0.298   1.892  -0.823  0.00  0.00    +0.000 HD
ATOM      4  C31 UNK     0      -0.975   0.861   0.599  0.00  0.00    +0.000 C 
ATOM      5  O6  UNK     0      -1.054   0.457   1.794  0.00  0.00    +0.000 OA
BRANCH   4   6
ATOM      6  C30 UNK     0      -2.156   0.608  -0.313  0.00  0.00    +0.000 C 
BRANCH   6   7
ATOM      7  N11 UNK     0      -3.339   1.312   0.194  0.00  0.00    +0.000 N 
ATOM      8  C41 UNK     0      -4.232   0.730   1.156  0.00  0.00    +0.000 C 
ATOM      9  O7  UNK     0      -3.923  -0.339   1.748  0.00  0.00    +0.000 OA
ATOM     10  H87 UNK     0      -3.508   2.301  -0.113  0.00  0.00    +0.000 HD
BRANCH   8  11
ATOM     11  C36 UNK     0      -5.497   1.444   1.541  0.00  0.00    +0.000 C 
BRANCH  11  12
ATOM     12  N12 UNK     0      -6.507   0.477   2.014  0.00  0.00    +0.000 NA
ATOM     13  C39 UNK     0      -7.525   1.148   2.847  0.00  0.00    +0.000 C 
ATOM     14  C42 UNK     0      -8.710   0.206   3.117  0.00  0.00    +0.000 C 
ATOM     15  O5  UNK     0      -9.305  -0.358   1.955  0.00  0.00    +0.000 OA
ATOM     16  C43 UNK     0      -8.608  -0.087   0.757  0.00  0.00    +0.000 C 
ATOM     17  C40 UNK     0      -7.098  -0.320   0.908  0.00  0.00    +0.000 C 
ENDBRANCH  11  12
ENDBRANCH   8  11
ENDBRANCH   6   7
BRANCH   6  18
ATOM     18  C32 UNK     0      -1.905   0.971  -1.793  0.00  0.00    +0.000 C 
BRANCH  18  19
ATOM     19  C35 UNK     0      -3.066   0.575  -2.718  0.00  0.00    +0.000 C 
BRANCH  19  20
ATOM     20  C44 UNK     0      -3.238  -0.918  -2.783  0.00  0.00    +0.000 A 
ATOM     21  C49 UNK     0      -4.291  -1.539  -2.096  0.00  0.00    +0.000 A 
ATOM     22  C51 UNK     0      -4.412  -2.930  -2.113  0.00  0.00    +0.000 A 
ATOM     23  C52 UNK     0      -3.490  -3.706  -2.816  0.00  0.00    +0.000 A 
ATOM     24  C50 UNK     0      -2.433  -3.095  -3.494  0.00  0.00    +0.000 A 
ATOM     25  C48 UNK     0      -2.308  -1.704  -3.482  0.00  0.00    +0.000 A 
ENDBRANCH  19  20
ENDBRANCH  18  19
ENDBRANCH   6  18
ENDBRANCH   4   6
ENDBRANCH   1   2
BRANCH   1  26
ATOM     26  C27 UNK     0       1.927   0.290   1.404  0.00  0.00    +0.000 C 
ATOM     27  N9  UNK     0       1.767  -0.839   0.534  0.00  0.00    +0.000 N 
ATOM     28  H73 UNK     0       1.270  -0.711  -0.373  0.00  0.00    +0.000 HD
ATOM     29  O4  UNK     0       2.562   0.157   2.485  0.00  0.00    +0.000 OA
BRANCH  27  30
ATOM     30  C21 UNK     0       2.506  -2.087   0.727  0.00  0.00    +0.000 C 
BRANCH  30  31
ATOM     31  C20 UNK     0       3.862  -2.012   0.076  0.00  0.00    +0.000 C 
ATOM     32  N8  UNK     0       4.203  -0.932  -0.814  0.00  0.00    +0.000 N 
ATOM     33  H62 UNK     0       3.446  -0.294  -1.144  0.00  0.00    +0.000 HD
ATOM     34  O3  UNK     0       4.704  -2.916   0.322  0.00  0.00    +0.000 OA
BRANCH  32  35
ATOM     35  C15 UNK     0       5.566  -0.699  -1.299  0.00  0.00    +0.000 C 
BRANCH  35  36
ATOM     36  C16 UNK     0       5.574   0.378  -2.367  0.00  0.00    +0.000 C 
ATOM     37  O2  UNK     0       5.061   1.469  -2.158  0.00  0.00    +0.000 OA
BRANCH  36  38
ATOM     38  C13 UNK     0       6.146   0.077  -3.730  0.00  0.00    +0.000 C 
ATOM     39  O1  UNK     0       5.476   0.720  -4.778  0.00  0.00    +0.000 OA
ATOM     40  C14 UNK     0       5.291  -0.670  -4.677  0.00  0.00    +0.000 C 
ATOM     41  C17 UNK     0       7.660   0.033  -3.920  0.00  0.00    +0.000 C 
ENDBRANCH  36  38
ENDBRANCH  35  36
BRANCH  35  42
ATOM     42  C18 UNK     0       6.527  -0.362  -0.131  0.00  0.00    +0.000 C 
BRANCH  42  43
ATOM     43  C19 UNK     0       6.050   0.798   0.789  0.00  0.00    +0.000 C 
ATOM     44  C23 UNK     0       6.830   2.088   0.526  0.00  0.00    +0.000 C 
ATOM     45  C22 UNK     0       6.183   0.406   2.264  0.00  0.00    +0.000 C 
ENDBRANCH  42  43
ENDBRANCH  35  42
ENDBRANCH  32  35
ENDBRANCH  30  31
BRANCH  30  46
ATOM     46  C24 UNK     0       1.712  -3.278   0.164  0.00  0.00    +0.000 C 
BRANCH  46  47
ATOM     47  C29 UNK     0       0.364  -3.392   0.825  0.00  0.00    +0.000 A 
ATOM     48  C37 UNK     0      -0.801  -3.000   0.139  0.00  0.00    +0.000 A 
ATOM     49  C45 UNK     0      -2.048  -3.099   0.763  0.00  0.00    +0.000 A 
ATOM     50  C47 UNK     0      -2.143  -3.550   2.082  0.00  0.00    +0.000 A 
ATOM     51  C46 UNK     0      -0.990  -3.968   2.759  0.00  0.00    +0.000 A 
ATOM     52  C38 UNK     0       0.260  -3.879   2.139  0.00  0.00    +0.000 A 
ENDBRANCH  46  47
ENDBRANCH  30  46
ENDBRANCH  27  30
ENDBRANCH   1  26
BRANCH   1  53
ATOM     53  C26 UNK     0       1.204   2.609   2.190  0.00  0.00    +0.000 C 
BRANCH  53  54
ATOM     54  C28 UNK     0       0.820   4.071   1.846  0.00  0.00    +0.000 C 
ATOM     55  C33 UNK     0      -0.620   4.206   1.329  0.00  0.00    +0.000 C 
ATOM     56  C34 UNK     0       1.813   4.729   0.879  0.00  0.00    +0.000 C 
ENDBRANCH  53  54
ENDBRANCH   1  53
TORSDOF 20
