REMARK  Name = C:\Users\Maximilian\Desktop\Conformers\converted_pdb\conformers_pdb\Thalidomide_conf_2.pdb
REMARK  1 active torsions:
REMARK  status: ('A' for Active; 'I' for Inactive)
REMARK    1  A    between atoms: N5_3  and  C7_12
REMARK                            x       y       z     vdW  Elec       q    Type
REMARK                         _______ _______ _______ _____ _____    ______ ____
ROOT
ATOM      1  O2  UNK     0       0.242  -0.052   2.225  0.00  0.00    +0.000 OA
ATOM      2  O3  UNK     0       0.622   0.909  -2.316  0.00  0.00    +0.000 OA
ATOM      3  N5  UNK     0      -0.039   0.595  -0.052  0.00  0.00    +0.000 N 
ATOM      4  C11 UNK     0       0.727   0.174   1.085  0.00  0.00    +0.000 C 
ATOM      5  C12 UNK     0       0.911   0.638  -1.121  0.00  0.00    +0.000 C 
ATOM      6  C13 UNK     0       2.128   0.014   0.716  0.00  0.00    +0.000 A 
ATOM      7  C14 UNK     0       2.241   0.297  -0.628  0.00  0.00    +0.000 A 
ATOM      8  C16 UNK     0       3.232  -0.368   1.476  0.00  0.00    +0.000 A 
ATOM      9  C17 UNK     0       3.464   0.215  -1.291  0.00  0.00    +0.000 A 
ATOM     10  C18 UNK     0       4.480  -0.453   0.832  0.00  0.00    +0.000 A 
ATOM     11  C19 UNK     0       4.595  -0.163  -0.546  0.00  0.00    +0.000 A 
ENDROOT
BRANCH   3  12
ATOM     12  C7  UNK     0      -1.498   0.554  -0.202  0.00  0.00    +0.000 C 
ATOM     13  C8  UNK     0      -1.979  -0.908  -0.259  0.00  0.00    +0.000 C 
ATOM     14  C9  UNK     0      -3.507  -0.992  -0.319  0.00  0.00    +0.000 C 
ATOM     15  C15 UNK     0      -4.120  -0.255   0.835  0.00  0.00    +0.000 C 
ATOM     16  N6  UNK     0      -3.459   0.883   1.398  0.00  0.00    +0.000 N 
ATOM     17  O4  UNK     0      -5.245  -0.609   1.278  0.00  0.00    +0.000 OA
ATOM     18  H25 UNK     0      -3.917   1.413   2.173  0.00  0.00    +0.000 HD
ATOM     19  C10 UNK     0      -2.179   1.306   0.915  0.00  0.00    +0.000 C 
ATOM     20  O1  UNK     0      -1.655   2.354   1.380  0.00  0.00    +0.000 OA
ENDBRANCH   3  12
TORSDOF 1
