REMARK  Name = C:\Users\Maximilian\Desktop\Conformers\converted_pdb\conformers_pdb\Thalidomide_conf_3.pdb
REMARK  1 active torsions:
REMARK  status: ('A' for Active; 'I' for Inactive)
REMARK    1  A    between atoms: N5_3  and  C7_12
REMARK                            x       y       z     vdW  Elec       q    Type
REMARK                         _______ _______ _______ _____ _____    ______ ____
ROOT
ATOM      1  O2  UNK     0       0.841   2.093  -1.536  0.00  0.00    +0.000 OA
ATOM      2  O3  UNK     0       0.050  -1.179   1.683  0.00  0.00    +0.000 OA
ATOM      3  N5  UNK     0      -0.025   0.620   0.120  0.00  0.00    +0.000 N 
ATOM      4  C11 UNK     0       1.021   1.200  -0.666  0.00  0.00    +0.000 C 
ATOM      5  C12 UNK     0       0.636  -0.387   0.899  0.00  0.00    +0.000 C 
ATOM      6  C13 UNK     0       2.302   0.589  -0.332  0.00  0.00    +0.000 A 
ATOM      7  C14 UNK     0       2.068  -0.378   0.621  0.00  0.00    +0.000 A 
ATOM      8  C16 UNK     0       3.582   0.832  -0.826  0.00  0.00    +0.000 A 
ATOM      9  C17 UNK     0       3.100  -1.159   1.137  0.00  0.00    +0.000 A 
ATOM     10  C18 UNK     0       4.643   0.060  -0.318  0.00  0.00    +0.000 A 
ATOM     11  C19 UNK     0       4.403  -0.931   0.659  0.00  0.00    +0.000 A 
ENDROOT
BRANCH   3  12
ATOM     12  C7  UNK     0      -1.462   0.729  -0.150  0.00  0.00    +0.000 C 
ATOM     13  C8  UNK     0      -1.920  -0.442  -1.039  0.00  0.00    +0.000 C 
ATOM     14  C9  UNK     0      -3.436  -0.415  -1.264  0.00  0.00    +0.000 C 
ATOM     15  C15 UNK     0      -4.161  -0.404   0.050  0.00  0.00    +0.000 C 
ATOM     16  N6  UNK     0      -3.568   0.212   1.197  0.00  0.00    +0.000 N 
ATOM     17  O4  UNK     0      -5.319  -0.895   0.130  0.00  0.00    +0.000 OA
ATOM     18  H25 UNK     0      -4.102   0.251   2.094  0.00  0.00    +0.000 HD
ATOM     19  C10 UNK     0      -2.252   0.776   1.135  0.00  0.00    +0.000 C 
ATOM     20  O1  UNK     0      -1.786   1.376   2.141  0.00  0.00    +0.000 OA
ENDBRANCH   3  12
TORSDOF 1
