REMARK  Name = C:\Users\Maximilian\Desktop\Conformers\converted_pdb\conformers_pdb\Ursolic Acid_conf_14.pdb
REMARK  10 active torsions:
REMARK  status: ('A' for Active; 'I' for Inactive)
REMARK    1  A    between atoms: C4_1  and  C19_16
REMARK    2  A    between atoms: C6_3  and  C22_19
REMARK    3  A    between atoms: C7_4  and  C25_22
REMARK    4  A    between atoms: C12_9  and  C28_25
REMARK    5  A    between atoms: C12_9  and  C29_26
REMARK    6  A    between atoms: C17_14  and  C31_30
REMARK    7  A    between atoms: C21_18  and  O1_34
REMARK    8  A    between atoms: C24_21  and  C32_28
REMARK    9  A    between atoms: C27_24  and  C33_29
REMARK   10  A    between atoms: C31_30  and  O2_32
REMARK                            x       y       z     vdW  Elec       q    Type
REMARK                         _______ _______ _______ _____ _____    ______ ____
ROOT
ATOM      1  C4  UNK     0      -0.565  -0.537  -0.721  0.00  0.00    +0.000 C 
ATOM      2  C5  UNK     0      -1.222  -0.065   0.635  0.00  0.00    +0.000 C 
ATOM      3  C6  UNK     0      -2.797  -0.275   0.806  0.00  0.00    +0.000 C 
ATOM      4  C7  UNK     0       0.931   0.077  -0.806  0.00  0.00    +0.000 C 
ATOM      5  C8  UNK     0      -3.485   0.328  -0.478  0.00  0.00    +0.000 C 
ATOM      6  C9  UNK     0      -1.440  -0.057  -1.926  0.00  0.00    +0.000 C 
ATOM      7  C10 UNK     0       1.737  -0.361   0.432  0.00  0.00    +0.000 C 
ATOM      8  C11 UNK     0      -2.940  -0.340  -1.767  0.00  0.00    +0.000 C 
ATOM      9  C12 UNK     0      -5.056   0.502  -0.413  0.00  0.00    +0.000 C 
ATOM     10  C13 UNK     0       3.275  -0.477   0.412  0.00  0.00    +0.000 C 
ATOM     11  C14 UNK     0      -0.372  -0.486   1.865  0.00  0.00    +0.000 C 
ATOM     12  C15 UNK     0       1.636  -0.378  -2.130  0.00  0.00    +0.000 C 
ATOM     13  C16 UNK     0      -3.270   0.565   2.037  0.00  0.00    +0.000 C 
ATOM     14  C17 UNK     0       3.823  -1.017  -0.958  0.00  0.00    +0.000 C 
ATOM     15  C18 UNK     0       3.161  -0.238  -2.124  0.00  0.00    +0.000 C 
ATOM     16  C19 UNK     0      -0.508  -2.103  -0.776  0.00  0.00    +0.000 C 
ATOM     17  C20 UNK     0       1.115  -0.556   1.623  0.00  0.00    +0.000 C 
ATOM     18  C21 UNK     0      -5.419   1.300   0.881  0.00  0.00    +0.000 C 
ATOM     19  C22 UNK     0      -3.185  -1.774   1.058  0.00  0.00    +0.000 C 
ATOM     20  C23 UNK     0      -4.797   0.709   2.151  0.00  0.00    +0.000 C 
ATOM     21  C24 UNK     0       4.038   0.820   0.848  0.00  0.00    +0.000 C 
ATOM     22  C25 UNK     0       0.960   1.643  -0.800  0.00  0.00    +0.000 C 
ATOM     23  C26 UNK     0       5.375  -0.819  -1.068  0.00  0.00    +0.000 C 
ATOM     24  C27 UNK     0       5.556   0.514   1.093  0.00  0.00    +0.000 C 
ATOM     25  C28 UNK     0      -5.540   1.355  -1.621  0.00  0.00    +0.000 C 
ATOM     26  C29 UNK     0      -5.825  -0.843  -0.470  0.00  0.00    +0.000 C 
ATOM     27  C30 UNK     0       6.058  -0.718   0.298  0.00  0.00    +0.000 C 
ATOM     28  C32 UNK     0       3.434   1.492   2.097  0.00  0.00    +0.000 C 
ATOM     29  C33 UNK     0       6.426   1.746   0.783  0.00  0.00    +0.000 C 
ENDROOT
BRANCH  14  30
ATOM     30  C31 UNK     0       3.518  -2.507  -1.109  0.00  0.00    +0.000 C 
ATOM     31  O3  UNK     0       3.787  -3.095  -2.192  0.00  0.00    +0.000 OA
BRANCH  30  32
ATOM     32  O2  UNK     0       2.947  -3.237  -0.067  0.00  0.00    +0.000 OA
ATOM     33  H81 UNK     0       2.749  -4.225  -0.171  0.00  0.00    +0.000 HD
ENDBRANCH  30  32
ENDBRANCH  14  30
BRANCH  18  34
ATOM     34  O1  UNK     0      -6.816   1.350   1.052  0.00  0.00    +0.000 OA
ATOM     35  H77 UNK     0      -7.096   2.300   0.992  0.00  0.00    +0.000 HD
ENDBRANCH  18  34
TORSDOF 3
