REMARK  Name = C:\Users\Maximilian\Desktop\Conformers\converted_pdb\conformers_pdb\Ursolic Acid_conf_23.pdb
REMARK  10 active torsions:
REMARK  status: ('A' for Active; 'I' for Inactive)
REMARK    1  A    between atoms: C4_1  and  C19_16
REMARK    2  A    between atoms: C6_3  and  C22_19
REMARK    3  A    between atoms: C7_4  and  C25_22
REMARK    4  A    between atoms: C12_9  and  C28_25
REMARK    5  A    between atoms: C12_9  and  C29_26
REMARK    6  A    between atoms: C17_14  and  C31_30
REMARK    7  A    between atoms: C21_18  and  O1_34
REMARK    8  A    between atoms: C24_21  and  C32_28
REMARK    9  A    between atoms: C27_24  and  C33_29
REMARK   10  A    between atoms: C31_30  and  O2_32
REMARK                            x       y       z     vdW  Elec       q    Type
REMARK                         _______ _______ _______ _____ _____    ______ ____
ROOT
ATOM      1  C4  UNK     0      -0.566  -0.263  -0.791  0.00  0.00    +0.000 C 
ATOM      2  C5  UNK     0      -1.211  -0.345   0.652  0.00  0.00    +0.000 C 
ATOM      3  C6  UNK     0      -2.786  -0.620   0.750  0.00  0.00    +0.000 C 
ATOM      4  C7  UNK     0       0.919   0.377  -0.670  0.00  0.00    +0.000 C 
ATOM      5  C8  UNK     0      -3.495   0.392  -0.227  0.00  0.00    +0.000 C 
ATOM      6  C9  UNK     0      -1.471   0.606  -1.724  0.00  0.00    +0.000 C 
ATOM      7  C10 UNK     0       1.746  -0.378   0.394  0.00  0.00    +0.000 C 
ATOM      8  C11 UNK     0      -2.957   0.239  -1.673  0.00  0.00    +0.000 C 
ATOM      9  C12 UNK     0      -5.067   0.512  -0.097  0.00  0.00    +0.000 C 
ATOM     10  C13 UNK     0       3.291  -0.377   0.383  0.00  0.00    +0.000 C 
ATOM     11  C14 UNK     0      -0.340  -1.205   1.599  0.00  0.00    +0.000 C 
ATOM     12  C15 UNK     0       1.654   0.324  -2.054  0.00  0.00    +0.000 C 
ATOM     13  C16 UNK     0      -3.255  -0.283   2.204  0.00  0.00    +0.000 C 
ATOM     14  C17 UNK     0       3.894  -0.427  -1.070  0.00  0.00    +0.000 C 
ATOM     15  C18 UNK     0       3.160   0.593  -1.978  0.00  0.00    +0.000 C 
ATOM     16  C19 UNK     0      -0.477  -1.694  -1.418  0.00  0.00    +0.000 C 
ATOM     17  C20 UNK     0       1.141  -1.002   1.435  0.00  0.00    +0.000 C 
ATOM     18  C21 UNK     0      -5.424   0.793   1.398  0.00  0.00    +0.000 C 
ATOM     19  C22 UNK     0      -3.165  -2.113   0.454  0.00  0.00    +0.000 C 
ATOM     20  C23 UNK     0      -4.782  -0.203   2.372  0.00  0.00    +0.000 C 
ATOM     21  C24 UNK     0       3.965   0.754   1.232  0.00  0.00    +0.000 C 
ATOM     22  C25 UNK     0       0.894   1.880  -0.234  0.00  0.00    +0.000 C 
ATOM     23  C26 UNK     0       5.417  -0.055  -1.061  0.00  0.00    +0.000 C 
ATOM     24  C27 UNK     0       5.489   0.449   1.434  0.00  0.00    +0.000 C 
ATOM     25  C28 UNK     0      -5.570   1.733  -0.918  0.00  0.00    +0.000 C 
ATOM     26  C29 UNK     0      -5.823  -0.733  -0.629  0.00  0.00    +0.000 C 
ATOM     27  C30 UNK     0       6.091  -0.386   0.273  0.00  0.00    +0.000 C 
ATOM     28  C32 UNK     0       3.283   0.975   2.596  0.00  0.00    +0.000 C 
ATOM     29  C33 UNK     0       6.296   1.746   1.631  0.00  0.00    +0.000 C 
ENDROOT
BRANCH  14  30
ATOM     30  C31 UNK     0       3.748  -1.827  -1.667  0.00  0.00    +0.000 C 
ATOM     31  O3  UNK     0       4.112  -2.045  -2.856  0.00  0.00    +0.000 OA
BRANCH  30  32
ATOM     32  O2  UNK     0       3.188  -2.871  -0.933  0.00  0.00    +0.000 OA
ATOM     33  H81 UNK     0       3.069  -3.790  -1.342  0.00  0.00    +0.000 HD
ENDBRANCH  30  32
ENDBRANCH  14  30
BRANCH  18  34
ATOM     34  O1  UNK     0      -6.819   0.777   1.580  0.00  0.00    +0.000 OA
ATOM     35  H77 UNK     0      -7.026   1.405   2.323  0.00  0.00    +0.000 HD
ENDBRANCH  18  34
TORSDOF 3
