REMARK  Name = C:\Users\Maximilian\Desktop\Conformers\converted_pdb\conformers_pdb\Ursolic Acid_conf_21.pdb
REMARK  10 active torsions:
REMARK  status: ('A' for Active; 'I' for Inactive)
REMARK    1  A    between atoms: C4_1  and  C19_16
REMARK    2  A    between atoms: C6_3  and  C22_19
REMARK    3  A    between atoms: C7_4  and  C25_22
REMARK    4  A    between atoms: C12_9  and  C28_25
REMARK    5  A    between atoms: C12_9  and  C29_26
REMARK    6  A    between atoms: C17_14  and  C31_30
REMARK    7  A    between atoms: C21_18  and  O1_34
REMARK    8  A    between atoms: C24_21  and  C32_28
REMARK    9  A    between atoms: C27_24  and  C33_29
REMARK   10  A    between atoms: C31_30  and  O2_32
REMARK                            x       y       z     vdW  Elec       q    Type
REMARK                         _______ _______ _______ _____ _____    ______ ____
ROOT
ATOM      1  C4  UNK     0       0.324  -0.578   0.735  0.00  0.00    +0.000 C 
ATOM      2  C5  UNK     0       1.321   0.169  -0.233  0.00  0.00    +0.000 C 
ATOM      3  C6  UNK     0       2.701  -0.556  -0.525  0.00  0.00    +0.000 C 
ATOM      4  C7  UNK     0      -0.880   0.440   1.043  0.00  0.00    +0.000 C 
ATOM      5  C8  UNK     0       3.361  -0.865   0.877  0.00  0.00    +0.000 C 
ATOM      6  C9  UNK     0       1.080  -0.997   2.035  0.00  0.00    +0.000 C 
ATOM      7  C10 UNK     0      -1.635   0.645  -0.273  0.00  0.00    +0.000 C 
ATOM      8  C11 UNK     0       2.423  -1.711   1.780  0.00  0.00    +0.000 C 
ATOM      9  C12 UNK     0       4.874  -1.331   0.841  0.00  0.00    +0.000 C 
ATOM     10  C13 UNK     0      -3.137   0.262  -0.319  0.00  0.00    +0.000 C 
ATOM     11  C14 UNK     0       0.608   0.788  -1.480  0.00  0.00    +0.000 C 
ATOM     12  C15 UNK     0      -1.848  -0.085   2.154  0.00  0.00    +0.000 C 
ATOM     13  C16 UNK     0       3.631   0.445  -1.281  0.00  0.00    +0.000 C 
ATOM     14  C17 UNK     0      -3.898   0.953   0.867  0.00  0.00    +0.000 C 
ATOM     15  C18 UNK     0      -3.174   0.702   2.246  0.00  0.00    +0.000 C 
ATOM     16  C19 UNK     0      -0.238  -1.883   0.070  0.00  0.00    +0.000 C 
ATOM     17  C20 UNK     0      -0.902   0.950  -1.381  0.00  0.00    +0.000 C 
ATOM     18  C21 UNK     0       5.698  -0.292   0.010  0.00  0.00    +0.000 C 
ATOM     19  C22 UNK     0       2.507  -1.828  -1.415  0.00  0.00    +0.000 C 
ATOM     20  C23 UNK     0       5.094  -0.013  -1.371  0.00  0.00    +0.000 C 
ATOM     21  C24 UNK     0      -3.882   0.453  -1.701  0.00  0.00    +0.000 C 
ATOM     22  C25 UNK     0      -0.380   1.850   1.524  0.00  0.00    +0.000 C 
ATOM     23  C26 UNK     0      -3.991   2.498   0.583  0.00  0.00    +0.000 C 
ATOM     24  C27 UNK     0      -4.602   1.833  -1.820  0.00  0.00    +0.000 C 
ATOM     25  C28 UNK     0       5.455  -1.331   2.282  0.00  0.00    +0.000 C 
ATOM     26  C29 UNK     0       5.061  -2.764   0.279  0.00  0.00    +0.000 C 
ATOM     27  C30 UNK     0      -3.962   2.892  -0.909  0.00  0.00    +0.000 C 
ATOM     28  C32 UNK     0      -4.872  -0.696  -1.997  0.00  0.00    +0.000 C 
ATOM     29  C33 UNK     0      -4.612   2.331  -3.273  0.00  0.00    +0.000 C 
ENDROOT
BRANCH  14  30
ATOM     30  C31 UNK     0      -5.288   0.332   0.997  0.00  0.00    +0.000 C 
ATOM     31  O3  UNK     0      -6.335   1.031   0.928  0.00  0.00    +0.000 OA
BRANCH  30  32
ATOM     32  O2  UNK     0      -5.404  -1.038   1.227  0.00  0.00    +0.000 OA
ATOM     33  H81 UNK     0      -6.314  -1.473   1.323  0.00  0.00    +0.000 HD
ENDBRANCH  30  32
ENDBRANCH  14  30
BRANCH  18  34
ATOM     34  O1  UNK     0       7.024  -0.730  -0.169  0.00  0.00    +0.000 OA
ATOM     35  H77 UNK     0       7.590  -0.247   0.489  0.00  0.00    +0.000 HD
ENDBRANCH  18  34
TORSDOF 3
