REMARK  Name = C:\Users\Maximilian\Desktop\Conformers\converted_pdb\conformers_pdb\Ursolic Acid_conf_6.pdb
REMARK  10 active torsions:
REMARK  status: ('A' for Active; 'I' for Inactive)
REMARK    1  A    between atoms: C4_1  and  C19_16
REMARK    2  A    between atoms: C6_3  and  C22_19
REMARK    3  A    between atoms: C7_4  and  C25_22
REMARK    4  A    between atoms: C12_9  and  C28_25
REMARK    5  A    between atoms: C12_9  and  C29_26
REMARK    6  A    between atoms: C17_14  and  C31_30
REMARK    7  A    between atoms: C21_18  and  O1_34
REMARK    8  A    between atoms: C24_21  and  C32_28
REMARK    9  A    between atoms: C27_24  and  C33_29
REMARK   10  A    between atoms: C31_30  and  O2_32
REMARK                            x       y       z     vdW  Elec       q    Type
REMARK                         _______ _______ _______ _____ _____    ______ ____
ROOT
ATOM      1  C4  UNK     0       0.678   0.856   0.284  0.00  0.00    +0.000 C 
ATOM      2  C5  UNK     0       1.233  -0.623   0.174  0.00  0.00    +0.000 C 
ATOM      3  C6  UNK     0       2.823  -0.825   0.181  0.00  0.00    +0.000 C 
ATOM      4  C7  UNK     0      -0.895   0.865  -0.115  0.00  0.00    +0.000 C 
ATOM      5  C8  UNK     0       3.420   0.177  -0.877  0.00  0.00    +0.000 C 
ATOM      6  C9  UNK     0       1.493   1.798  -0.663  0.00  0.00    +0.000 C 
ATOM      7  C10 UNK     0      -1.662  -0.251   0.633  0.00  0.00    +0.000 C 
ATOM      8  C11 UNK     0       3.013   1.637  -0.551  0.00  0.00    +0.000 C 
ATOM      9  C12 UNK     0       4.939  -0.033  -1.266  0.00  0.00    +0.000 C 
ATOM     10  C13 UNK     0      -3.197  -0.200   0.826  0.00  0.00    +0.000 C 
ATOM     11  C14 UNK     0       0.458  -1.569   1.119  0.00  0.00    +0.000 C 
ATOM     12  C15 UNK     0      -1.548   2.248   0.225  0.00  0.00    +0.000 C 
ATOM     13  C16 UNK     0       3.138  -2.278  -0.307  0.00  0.00    +0.000 C 
ATOM     14  C17 UNK     0      -3.737   1.254   1.100  0.00  0.00    +0.000 C 
ATOM     15  C18 UNK     0      -3.077   2.259   0.122  0.00  0.00    +0.000 C 
ATOM     16  C19 UNK     0       0.858   1.386   1.744  0.00  0.00    +0.000 C 
ATOM     17  C20 UNK     0      -1.028  -1.357   1.097  0.00  0.00    +0.000 C 
ATOM     18  C21 UNK     0       5.147  -1.524  -1.686  0.00  0.00    +0.000 C 
ATOM     19  C22 UNK     0       3.454  -0.651   1.607  0.00  0.00    +0.000 C 
ATOM     20  C23 UNK     0       4.616  -2.523  -0.649  0.00  0.00    +0.000 C 
ATOM     21  C24 UNK     0      -4.037  -0.914  -0.287  0.00  0.00    +0.000 C 
ATOM     22  C25 UNK     0      -1.109   0.630  -1.648  0.00  0.00    +0.000 C 
ATOM     23  C26 UNK     0      -5.289   1.321   0.889  0.00  0.00    +0.000 C 
ATOM     24  C27 UNK     0      -5.516  -1.116   0.192  0.00  0.00    +0.000 C 
ATOM     25  C28 UNK     0       5.287   0.837  -2.508  0.00  0.00    +0.000 C 
ATOM     26  C29 UNK     0       5.921   0.373  -0.137  0.00  0.00    +0.000 C 
ATOM     27  C30 UNK     0      -5.972  -0.016   1.187  0.00  0.00    +0.000 C 
ATOM     28  C32 UNK     0      -3.431  -2.261  -0.729  0.00  0.00    +0.000 C 
ATOM     29  C33 UNK     0      -6.485  -1.186  -1.003  0.00  0.00    +0.000 C 
ENDROOT
BRANCH  14  30
ATOM     30  C31 UNK     0      -3.428   1.688   2.534  0.00  0.00    +0.000 C 
ATOM     31  O3  UNK     0      -2.673   1.000   3.275  0.00  0.00    +0.000 OA
BRANCH  30  32
ATOM     32  O2  UNK     0      -3.936   2.892   3.021  0.00  0.00    +0.000 OA
ATOM     33  H81 UNK     0      -3.721   3.206   3.960  0.00  0.00    +0.000 HD
ENDBRANCH  30  32
ENDBRANCH  14  30
BRANCH  18  34
ATOM     34  O1  UNK     0       6.510  -1.784  -1.919  0.00  0.00    +0.000 OA
ATOM     35  H77 UNK     0       6.559  -2.568  -2.525  0.00  0.00    +0.000 HD
ENDBRANCH  18  34
TORSDOF 3
