REMARK  Name = C:\Users\Maximilian\Desktop\Conformers\converted_pdb\conformers_pdb\Ursolic Acid_conf_19.pdb
REMARK  10 active torsions:
REMARK  status: ('A' for Active; 'I' for Inactive)
REMARK    1  A    between atoms: C4_1  and  C19_16
REMARK    2  A    between atoms: C6_3  and  C22_19
REMARK    3  A    between atoms: C7_4  and  C25_22
REMARK    4  A    between atoms: C12_9  and  C28_25
REMARK    5  A    between atoms: C12_9  and  C29_26
REMARK    6  A    between atoms: C17_14  and  C31_30
REMARK    7  A    between atoms: C21_18  and  O1_34
REMARK    8  A    between atoms: C24_21  and  C32_28
REMARK    9  A    between atoms: C27_24  and  C33_29
REMARK   10  A    between atoms: C31_30  and  O2_32
REMARK                            x       y       z     vdW  Elec       q    Type
REMARK                         _______ _______ _______ _____ _____    ______ ____
ROOT
ATOM      1  C4  UNK     0      -0.509   1.006  -0.118  0.00  0.00    +0.000 C 
ATOM      2  C5  UNK     0      -1.366  -0.323  -0.210  0.00  0.00    +0.000 C 
ATOM      3  C6  UNK     0      -2.966  -0.193  -0.162  0.00  0.00    +0.000 C 
ATOM      4  C7  UNK     0       1.034   0.619   0.205  0.00  0.00    +0.000 C 
ATOM      5  C8  UNK     0      -3.327   0.735   1.057  0.00  0.00    +0.000 C 
ATOM      6  C9  UNK     0      -1.108   1.936   0.996  0.00  0.00    +0.000 C 
ATOM      7  C10 UNK     0       1.538  -0.469  -0.781  0.00  0.00    +0.000 C 
ATOM      8  C11 UNK     0      -2.627   2.111   0.924  0.00  0.00    +0.000 C 
ATOM      9  C12 UNK     0      -4.850   0.785   1.487  0.00  0.00    +0.000 C 
ATOM     10  C13 UNK     0       3.036  -0.636  -1.131  0.00  0.00    +0.000 C 
ATOM     11  C14 UNK     0      -0.827  -1.240  -1.332  0.00  0.00    +0.000 C 
ATOM     12  C15 UNK     0       1.959   1.895   0.144  0.00  0.00    +0.000 C 
ATOM     13  C16 UNK     0      -3.558  -1.612   0.132  0.00  0.00    +0.000 C 
ATOM     14  C17 UNK     0       3.849   0.727  -1.153  0.00  0.00    +0.000 C 
ATOM     15  C18 UNK     0       2.884   1.941  -1.077  0.00  0.00    +0.000 C 
ATOM     16  C19 UNK     0      -0.560   1.781  -1.478  0.00  0.00    +0.000 C 
ATOM     17  C20 UNK     0       0.669  -1.320  -1.388  0.00  0.00    +0.000 C 
ATOM     18  C21 UNK     0      -5.358  -0.682   1.685  0.00  0.00    +0.000 C 
ATOM     19  C22 UNK     0      -3.579   0.318  -1.510  0.00  0.00    +0.000 C 
ATOM     20  C23 UNK     0      -5.051  -1.617   0.506  0.00  0.00    +0.000 C 
ATOM     21  C24 UNK     0       3.736  -1.774  -0.292  0.00  0.00    +0.000 C 
ATOM     22  C25 UNK     0       1.223   0.013   1.633  0.00  0.00    +0.000 C 
ATOM     23  C26 UNK     0       4.853   0.772   0.031  0.00  0.00    +0.000 C 
ATOM     24  C27 UNK     0       5.280  -1.726  -0.508  0.00  0.00    +0.000 C 
ATOM     25  C28 UNK     0      -4.979   1.496   2.867  0.00  0.00    +0.000 C 
ATOM     26  C29 UNK     0      -5.741   1.569   0.490  0.00  0.00    +0.000 C 
ATOM     27  C30 UNK     0       5.878  -0.374  -0.028  0.00  0.00    +0.000 C 
ATOM     28  C32 UNK     0       3.152  -3.165  -0.624  0.00  0.00    +0.000 C 
ATOM     29  C33 UNK     0       6.034  -2.885   0.174  0.00  0.00    +0.000 C 
ENDROOT
BRANCH  14  30
ATOM     30  C31 UNK     0       4.661   0.900  -2.445  0.00  0.00    +0.000 C 
ATOM     31  O3  UNK     0       5.285   1.979  -2.648  0.00  0.00    +0.000 OA
BRANCH  30  32
ATOM     32  O2  UNK     0       4.770  -0.118  -3.392  0.00  0.00    +0.000 OA
ATOM     33  H81 UNK     0       5.338  -0.002  -4.222  0.00  0.00    +0.000 HD
ENDBRANCH  30  32
ENDBRANCH  14  30
BRANCH  18  34
ATOM     34  O1  UNK     0      -6.726  -0.729   2.014  0.00  0.00    +0.000 OA
ATOM     35  H77 UNK     0      -7.250  -0.529   1.195  0.00  0.00    +0.000 HD
ENDBRANCH  18  34
TORSDOF 3
