REMARK  Name = C:\Users\Maximilian\Desktop\Conformers\converted_pdb\conformers_pdb\Ursolic Acid_conf_24.pdb
REMARK  10 active torsions:
REMARK  status: ('A' for Active; 'I' for Inactive)
REMARK    1  A    between atoms: C4_1  and  C19_16
REMARK    2  A    between atoms: C6_3  and  C22_19
REMARK    3  A    between atoms: C7_4  and  C25_22
REMARK    4  A    between atoms: C12_9  and  C28_25
REMARK    5  A    between atoms: C12_9  and  C29_26
REMARK    6  A    between atoms: C17_14  and  C31_30
REMARK    7  A    between atoms: C21_18  and  O1_34
REMARK    8  A    between atoms: C24_21  and  C32_28
REMARK    9  A    between atoms: C27_24  and  C33_29
REMARK   10  A    between atoms: C31_30  and  O2_32
REMARK                            x       y       z     vdW  Elec       q    Type
REMARK                         _______ _______ _______ _____ _____    ______ ____
ROOT
ATOM      1  C4  UNK     0       0.556  -0.698   0.499  0.00  0.00    +0.000 C 
ATOM      2  C5  UNK     0       1.213   0.090  -0.702  0.00  0.00    +0.000 C 
ATOM      3  C6  UNK     0       2.800  -0.001  -0.903  0.00  0.00    +0.000 C 
ATOM      4  C7  UNK     0      -0.923  -0.088   0.735  0.00  0.00    +0.000 C 
ATOM      5  C8  UNK     0       3.477   0.182   0.505  0.00  0.00    +0.000 C 
ATOM      6  C9  UNK     0       1.436  -0.582   1.788  0.00  0.00    +0.000 C 
ATOM      7  C10 UNK     0      -1.733  -0.190  -0.581  0.00  0.00    +0.000 C 
ATOM      8  C11 UNK     0       2.924  -0.831   1.539  0.00  0.00    +0.000 C 
ATOM      9  C12 UNK     0       5.059   0.329   0.508  0.00  0.00    +0.000 C 
ATOM     10  C13 UNK     0      -3.270  -0.269  -0.582  0.00  0.00    +0.000 C 
ATOM     11  C14 UNK     0       0.384  -0.130  -1.995  0.00  0.00    +0.000 C 
ATOM     12  C15 UNK     0      -1.634  -0.841   1.916  0.00  0.00    +0.000 C 
ATOM     13  C16 UNK     0       3.248   1.181  -1.853  0.00  0.00    +0.000 C 
ATOM     14  C17 UNK     0      -3.761  -1.235   0.544  0.00  0.00    +0.000 C 
ATOM     15  C18 UNK     0      -3.170  -0.773   1.902  0.00  0.00    +0.000 C 
ATOM     16  C19 UNK     0       0.446  -2.224   0.146  0.00  0.00    +0.000 C 
ATOM     17  C20 UNK     0      -1.110  -0.097  -1.784  0.00  0.00    +0.000 C 
ATOM     18  C21 UNK     0       5.570   1.097  -0.771  0.00  0.00    +0.000 C 
ATOM     19  C22 UNK     0       3.258  -1.336  -1.578  0.00  0.00    +0.000 C 
ATOM     20  C23 UNK     0       4.473   1.983  -1.380  0.00  0.00    +0.000 C 
ATOM     21  C24 UNK     0      -3.960   1.143  -0.540  0.00  0.00    +0.000 C 
ATOM     22  C25 UNK     0      -0.913   1.437   1.102  0.00  0.00    +0.000 C 
ATOM     23  C26 UNK     0      -5.310  -1.263   0.601  0.00  0.00    +0.000 C 
ATOM     24  C27 UNK     0      -5.511   0.996  -0.516  0.00  0.00    +0.000 C 
ATOM     25  C28 UNK     0       5.470   1.173   1.749  0.00  0.00    +0.000 C 
ATOM     26  C29 UNK     0       5.787  -1.036   0.650  0.00  0.00    +0.000 C 
ATOM     27  C30 UNK     0      -5.945   0.124   0.673  0.00  0.00    +0.000 C 
ATOM     28  C32 UNK     0      -3.510   2.021  -1.728  0.00  0.00    +0.000 C 
ATOM     29  C33 UNK     0      -6.240   2.350  -0.427  0.00  0.00    +0.000 C 
ENDROOT
BRANCH  14  30
ATOM     30  C31 UNK     0      -3.331  -2.674   0.265  0.00  0.00    +0.000 C 
ATOM     31  O3  UNK     0      -3.025  -3.046  -0.901  0.00  0.00    +0.000 OA
BRANCH  30  32
ATOM     32  O2  UNK     0      -3.360  -3.616   1.290  0.00  0.00    +0.000 OA
ATOM     33  H81 UNK     0      -3.098  -4.580   1.118  0.00  0.00    +0.000 HD
ENDBRANCH  30  32
ENDBRANCH  14  30
BRANCH  18  34
ATOM     34  O1  UNK     0       6.075   0.221  -1.749  0.00  0.00    +0.000 OA
ATOM     35  H77 UNK     0       6.595   0.766  -2.397  0.00  0.00    +0.000 HD
ENDBRANCH  18  34
TORSDOF 3
