REMARK  Name = C:\Users\Maximilian\Desktop\Conformers\converted_pdb\conformers_pdb\Ursolic Acid_conf_11.pdb
REMARK  10 active torsions:
REMARK  status: ('A' for Active; 'I' for Inactive)
REMARK    1  A    between atoms: C4_1  and  C19_16
REMARK    2  A    between atoms: C6_3  and  C22_19
REMARK    3  A    between atoms: C7_4  and  C25_22
REMARK    4  A    between atoms: C12_9  and  C28_25
REMARK    5  A    between atoms: C12_9  and  C29_26
REMARK    6  A    between atoms: C17_14  and  C31_30
REMARK    7  A    between atoms: C21_18  and  O1_34
REMARK    8  A    between atoms: C24_21  and  C32_28
REMARK    9  A    between atoms: C27_24  and  C33_29
REMARK   10  A    between atoms: C31_30  and  O2_32
REMARK                            x       y       z     vdW  Elec       q    Type
REMARK                         _______ _______ _______ _____ _____    ______ ____
ROOT
ATOM      1  C4  UNK     0       0.506  -0.451   0.589  0.00  0.00    +0.000 C 
ATOM      2  C5  UNK     0       1.257   0.329  -0.553  0.00  0.00    +0.000 C 
ATOM      3  C6  UNK     0       2.833   0.124  -0.648  0.00  0.00    +0.000 C 
ATOM      4  C7  UNK     0      -1.008   0.104   0.653  0.00  0.00    +0.000 C 
ATOM      5  C8  UNK     0       3.437   0.416   0.778  0.00  0.00    +0.000 C 
ATOM      6  C9  UNK     0       1.249  -0.230   1.948  0.00  0.00    +0.000 C 
ATOM      7  C10 UNK     0      -1.682  -0.214  -0.697  0.00  0.00    +0.000 C 
ATOM      8  C11 UNK     0       2.770  -0.444   1.884  0.00  0.00    +0.000 C 
ATOM      9  C12 UNK     0       5.026   0.467   0.861  0.00  0.00    +0.000 C 
ATOM     10  C13 UNK     0      -3.184  -0.507  -0.814  0.00  0.00    +0.000 C 
ATOM     11  C14 UNK     0       0.502   0.255  -1.919  0.00  0.00    +0.000 C 
ATOM     12  C15 UNK     0      -1.774  -0.505   1.887  0.00  0.00    +0.000 C 
ATOM     13  C16 UNK     0       3.404   1.177  -1.677  0.00  0.00    +0.000 C 
ATOM     14  C17 UNK     0      -3.660  -1.379   0.389  0.00  0.00    +0.000 C 
ATOM     15  C18 UNK     0      -3.291  -0.657   1.713  0.00  0.00    +0.000 C 
ATOM     16  C19 UNK     0       0.500  -1.991   0.276  0.00  0.00    +0.000 C 
ATOM     17  C20 UNK     0      -0.957  -0.141  -1.842  0.00  0.00    +0.000 C 
ATOM     18  C21 UNK     0       5.661   0.991  -0.480  0.00  0.00    +0.000 C 
ATOM     19  C22 UNK     0       3.207  -1.311  -1.148  0.00  0.00    +0.000 C 
ATOM     20  C23 UNK     0       4.690   1.903  -1.243  0.00  0.00    +0.000 C 
ATOM     21  C24 UNK     0      -4.044   0.795  -1.010  0.00  0.00    +0.000 C 
ATOM     22  C25 UNK     0      -1.098   1.659   0.808  0.00  0.00    +0.000 C 
ATOM     23  C26 UNK     0      -5.188  -1.626   0.306  0.00  0.00    +0.000 C 
ATOM     24  C27 UNK     0      -5.558   0.439  -1.107  0.00  0.00    +0.000 C 
ATOM     25  C28 UNK     0       5.426   1.461   1.988  0.00  0.00    +0.000 C 
ATOM     26  C29 UNK     0       5.657  -0.899   1.244  0.00  0.00    +0.000 C 
ATOM     27  C30 UNK     0      -6.004  -0.345   0.137  0.00  0.00    +0.000 C 
ATOM     28  C32 UNK     0      -3.586   1.592  -2.251  0.00  0.00    +0.000 C 
ATOM     29  C33 UNK     0      -6.456   1.682  -1.256  0.00  0.00    +0.000 C 
ENDROOT
BRANCH  14  30
ATOM     30  C31 UNK     0      -3.010  -2.759   0.354  0.00  0.00    +0.000 C 
ATOM     31  O3  UNK     0      -3.046  -3.501   1.375  0.00  0.00    +0.000 OA
BRANCH  30  32
ATOM     32  O2  UNK     0      -2.432  -3.247  -0.816  0.00  0.00    +0.000 OA
ATOM     33  H81 UNK     0      -2.014  -4.170  -0.843  0.00  0.00    +0.000 HD
ENDBRANCH  30  32
ENDBRANCH  14  30
BRANCH  18  34
ATOM     34  O1  UNK     0       6.085  -0.063  -1.309  0.00  0.00    +0.000 OA
ATOM     35  H77 UNK     0       6.600   0.337  -2.058  0.00  0.00    +0.000 HD
ENDBRANCH  18  34
TORSDOF 3
