REMARK  Name = C:\Users\Maximilian\Desktop\Conformers\converted_pdb\conformers_pdb\Ursolic Acid_conf_7.pdb
REMARK  10 active torsions:
REMARK  status: ('A' for Active; 'I' for Inactive)
REMARK    1  A    between atoms: C4_1  and  C19_16
REMARK    2  A    between atoms: C6_3  and  C22_19
REMARK    3  A    between atoms: C7_4  and  C25_22
REMARK    4  A    between atoms: C12_9  and  C28_25
REMARK    5  A    between atoms: C12_9  and  C29_26
REMARK    6  A    between atoms: C17_14  and  C31_30
REMARK    7  A    between atoms: C21_18  and  O1_34
REMARK    8  A    between atoms: C24_21  and  C32_28
REMARK    9  A    between atoms: C27_24  and  C33_29
REMARK   10  A    between atoms: C31_30  and  O2_32
REMARK                            x       y       z     vdW  Elec       q    Type
REMARK                         _______ _______ _______ _____ _____    ______ ____
ROOT
ATOM      1  C4  UNK     0       0.521  -0.270   0.624  0.00  0.00    +0.000 C 
ATOM      2  C5  UNK     0       1.310   0.100  -0.700  0.00  0.00    +0.000 C 
ATOM      3  C6  UNK     0       2.881  -0.212  -0.741  0.00  0.00    +0.000 C 
ATOM      4  C7  UNK     0      -0.973   0.361   0.550  0.00  0.00    +0.000 C 
ATOM      5  C8  UNK     0       3.525   0.399   0.559  0.00  0.00    +0.000 C 
ATOM      6  C9  UNK     0       1.328   0.300   1.839  0.00  0.00    +0.000 C 
ATOM      7  C10 UNK     0      -1.657  -0.020  -0.776  0.00  0.00    +0.000 C 
ATOM      8  C11 UNK     0       2.810  -0.098   1.840  0.00  0.00    +0.000 C 
ATOM      9  C12 UNK     0       5.113   0.396   0.669  0.00  0.00    +0.000 C 
ATOM     10  C13 UNK     0      -3.184  -0.223  -0.851  0.00  0.00    +0.000 C 
ATOM     11  C14 UNK     0       0.551  -0.329  -1.982  0.00  0.00    +0.000 C 
ATOM     12  C15 UNK     0      -1.903  -0.090   1.738  0.00  0.00    +0.000 C 
ATOM     13  C16 UNK     0       3.492   0.535  -1.978  0.00  0.00    +0.000 C 
ATOM     14  C17 UNK     0      -3.679  -1.271   0.229  0.00  0.00    +0.000 C 
ATOM     15  C18 UNK     0      -2.742  -1.356   1.476  0.00  0.00    +0.000 C 
ATOM     16  C19 UNK     0       0.428  -1.811   0.810  0.00  0.00    +0.000 C 
ATOM     17  C20 UNK     0      -0.942  -0.195  -1.911  0.00  0.00    +0.000 C 
ATOM     18  C21 UNK     0       5.816   0.374  -0.744  0.00  0.00    +0.000 C 
ATOM     19  C22 UNK     0       3.165  -1.742  -0.903  0.00  0.00    +0.000 C 
ATOM     20  C23 UNK     0       4.973   0.971  -1.885  0.00  0.00    +0.000 C 
ATOM     21  C24 UNK     0      -3.998   1.114  -0.855  0.00  0.00    +0.000 C 
ATOM     22  C25 UNK     0      -0.930   1.926   0.614  0.00  0.00    +0.000 C 
ATOM     23  C26 UNK     0      -5.116  -0.909   0.716  0.00  0.00    +0.000 C 
ATOM     24  C27 UNK     0      -5.531   0.863  -1.055  0.00  0.00    +0.000 C 
ATOM     25  C28 UNK     0       5.535   1.719   1.375  0.00  0.00    +0.000 C 
ATOM     26  C29 UNK     0       5.668  -0.747   1.570  0.00  0.00    +0.000 C 
ATOM     27  C30 UNK     0      -6.003  -0.483  -0.454  0.00  0.00    +0.000 C 
ATOM     28  C32 UNK     0      -3.486   2.080  -1.946  0.00  0.00    +0.000 C 
ATOM     29  C33 UNK     0      -6.363   2.020  -0.468  0.00  0.00    +0.000 C 
ENDROOT
BRANCH  14  30
ATOM     30  C31 UNK     0      -3.694  -2.661  -0.412  0.00  0.00    +0.000 C 
ATOM     31  O3  UNK     0      -2.736  -3.028  -1.147  0.00  0.00    +0.000 OA
BRANCH  30  32
ATOM     32  O2  UNK     0      -4.714  -3.571  -0.129  0.00  0.00    +0.000 OA
ATOM     33  H81 UNK     0      -4.720  -4.491  -0.553  0.00  0.00    +0.000 HD
ENDBRANCH  30  32
ENDBRANCH  14  30
BRANCH  18  34
ATOM     34  O1  UNK     0       6.373  -0.863  -1.123  0.00  0.00    +0.000 OA
ATOM     35  H77 UNK     0       5.753  -1.591  -0.903  0.00  0.00    +0.000 HD
ENDBRANCH  18  34
TORSDOF 3
