REMARK  Name = C:\Users\Maximilian\Desktop\Conformers\converted_pdb\conformers_pdb\Ursolic Acid_conf_28.pdb
REMARK  10 active torsions:
REMARK  status: ('A' for Active; 'I' for Inactive)
REMARK    1  A    between atoms: C4_1  and  C19_16
REMARK    2  A    between atoms: C6_3  and  C22_19
REMARK    3  A    between atoms: C7_4  and  C25_22
REMARK    4  A    between atoms: C12_9  and  C28_25
REMARK    5  A    between atoms: C12_9  and  C29_26
REMARK    6  A    between atoms: C17_14  and  C31_30
REMARK    7  A    between atoms: C21_18  and  O1_34
REMARK    8  A    between atoms: C24_21  and  C32_28
REMARK    9  A    between atoms: C27_24  and  C33_29
REMARK   10  A    between atoms: C31_30  and  O2_32
REMARK                            x       y       z     vdW  Elec       q    Type
REMARK                         _______ _______ _______ _____ _____    ______ ____
ROOT
ATOM      1  C4  UNK     0       0.628  -0.787   0.242  0.00  0.00    +0.000 C 
ATOM      2  C5  UNK     0       1.186   0.176  -0.883  0.00  0.00    +0.000 C 
ATOM      3  C6  UNK     0       2.752   0.137  -1.222  0.00  0.00    +0.000 C 
ATOM      4  C7  UNK     0      -0.842  -0.273   0.685  0.00  0.00    +0.000 C 
ATOM      5  C8  UNK     0       3.539   0.141   0.139  0.00  0.00    +0.000 C 
ATOM      6  C9  UNK     0       1.605  -0.804   1.461  0.00  0.00    +0.000 C 
ATOM      7  C10 UNK     0      -1.739  -0.081  -0.561  0.00  0.00    +0.000 C 
ATOM      8  C11 UNK     0       3.070  -1.005   1.071  0.00  0.00    +0.000 C 
ATOM      9  C12 UNK     0       5.117   0.308   0.038  0.00  0.00    +0.000 C 
ATOM     10  C13 UNK     0      -3.279  -0.123  -0.470  0.00  0.00    +0.000 C 
ATOM     11  C14 UNK     0       0.261   0.127  -2.119  0.00  0.00    +0.000 C 
ATOM     12  C15 UNK     0      -1.499  -1.295   1.676  0.00  0.00    +0.000 C 
ATOM     13  C16 UNK     0       3.120   1.442  -2.037  0.00  0.00    +0.000 C 
ATOM     14  C17 UNK     0      -3.795  -1.217   0.536  0.00  0.00    +0.000 C 
ATOM     15  C18 UNK     0      -3.008  -1.110   1.869  0.00  0.00    +0.000 C 
ATOM     16  C19 UNK     0       0.518  -2.250  -0.311  0.00  0.00    +0.000 C 
ATOM     17  C20 UNK     0      -1.201   0.209  -1.775  0.00  0.00    +0.000 C 
ATOM     18  C21 UNK     0       5.523   1.240  -1.167  0.00  0.00    +0.000 C 
ATOM     19  C22 UNK     0       3.156  -1.089  -2.105  0.00  0.00    +0.000 C 
ATOM     20  C23 UNK     0       4.381   2.188  -1.563  0.00  0.00    +0.000 C 
ATOM     21  C24 UNK     0      -3.971   1.256  -0.208  0.00  0.00    +0.000 C 
ATOM     22  C25 UNK     0      -0.806   1.107   1.424  0.00  0.00    +0.000 C 
ATOM     23  C26 UNK     0      -5.315  -1.020   0.857  0.00  0.00    +0.000 C 
ATOM     24  C27 UNK     0      -5.516   1.154  -0.456  0.00  0.00    +0.000 C 
ATOM     25  C28 UNK     0       5.621   0.993   1.342  0.00  0.00    +0.000 C 
ATOM     26  C29 UNK     0       5.857  -1.054  -0.055  0.00  0.00    +0.000 C 
ATOM     27  C30 UNK     0      -6.063  -0.283  -0.258  0.00  0.00    +0.000 C 
ATOM     28  C32 UNK     0      -3.374   2.395  -1.056  0.00  0.00    +0.000 C 
ATOM     29  C33 UNK     0      -6.287   2.147   0.432  0.00  0.00    +0.000 C 
ENDROOT
BRANCH  14  30
ATOM     30  C31 UNK     0      -3.618  -2.621  -0.042  0.00  0.00    +0.000 C 
ATOM     31  O3  UNK     0      -3.398  -2.801  -1.271  0.00  0.00    +0.000 OA
BRANCH  30  32
ATOM     32  O2  UNK     0      -3.751  -3.731   0.790  0.00  0.00    +0.000 OA
ATOM     33  H81 UNK     0      -3.667  -4.672   0.420  0.00  0.00    +0.000 HD
ENDBRANCH  30  32
ENDBRANCH  14  30
BRANCH  18  34
ATOM     34  O1  UNK     0       5.943   0.503  -2.288  0.00  0.00    +0.000 OA
ATOM     35  H77 UNK     0       6.413   1.131  -2.897  0.00  0.00    +0.000 HD
ENDBRANCH  18  34
TORSDOF 3
