REMARK  Name = C:\Users\Maximilian\Desktop\Conformers\converted_pdb\conformers_pdb\Ursolic Acid_conf_27.pdb
REMARK  10 active torsions:
REMARK  status: ('A' for Active; 'I' for Inactive)
REMARK    1  A    between atoms: C4_1  and  C19_16
REMARK    2  A    between atoms: C6_3  and  C22_19
REMARK    3  A    between atoms: C7_4  and  C25_22
REMARK    4  A    between atoms: C12_9  and  C28_25
REMARK    5  A    between atoms: C12_9  and  C29_26
REMARK    6  A    between atoms: C17_14  and  C31_30
REMARK    7  A    between atoms: C21_18  and  O1_34
REMARK    8  A    between atoms: C24_21  and  C32_28
REMARK    9  A    between atoms: C27_24  and  C33_29
REMARK   10  A    between atoms: C31_30  and  O2_32
REMARK                            x       y       z     vdW  Elec       q    Type
REMARK                         _______ _______ _______ _____ _____    ______ ____
ROOT
ATOM      1  C4  UNK     0      -0.491  -0.706  -0.461  0.00  0.00    +0.000 C 
ATOM      2  C5  UNK     0      -1.334   0.376   0.333  0.00  0.00    +0.000 C 
ATOM      3  C6  UNK     0      -2.930   0.238   0.356  0.00  0.00    +0.000 C 
ATOM      4  C7  UNK     0       1.027  -0.157  -0.643  0.00  0.00    +0.000 C 
ATOM      5  C8  UNK     0      -3.414  -0.029  -1.117  0.00  0.00    +0.000 C 
ATOM      6  C9  UNK     0      -1.178  -0.975  -1.843  0.00  0.00    +0.000 C 
ATOM      7  C10 UNK     0       1.598   0.312   0.712  0.00  0.00    +0.000 C 
ATOM      8  C11 UNK     0      -2.684  -1.241  -1.747  0.00  0.00    +0.000 C 
ATOM      9  C12 UNK     0      -4.987  -0.009  -1.353  0.00  0.00    +0.000 C 
ATOM     10  C13 UNK     0       3.103   0.193   1.020  0.00  0.00    +0.000 C 
ATOM     11  C14 UNK     0      -0.698   0.663   1.713  0.00  0.00    +0.000 C 
ATOM     12  C15 UNK     0       2.008  -1.222  -1.259  0.00  0.00    +0.000 C 
ATOM     13  C16 UNK     0      -3.542   1.610   0.853  0.00  0.00    +0.000 C 
ATOM     14  C17 UNK     0       3.627  -1.284   0.784  0.00  0.00    +0.000 C 
ATOM     15  C18 UNK     0       2.762  -2.090  -0.237  0.00  0.00    +0.000 C 
ATOM     16  C19 UNK     0      -0.458  -2.052   0.318  0.00  0.00    +0.000 C 
ATOM     17  C20 UNK     0       0.796   0.830   1.672  0.00  0.00    +0.000 C 
ATOM     18  C21 UNK     0      -5.699   1.035  -0.411  0.00  0.00    +0.000 C 
ATOM     19  C22 UNK     0      -3.428  -0.881   1.328  0.00  0.00    +0.000 C 
ATOM     20  C23 UNK     0      -4.737   2.143   0.039  0.00  0.00    +0.000 C 
ATOM     21  C24 UNK     0       3.974   1.294   0.328  0.00  0.00    +0.000 C 
ATOM     22  C25 UNK     0       1.076   1.071  -1.616  0.00  0.00    +0.000 C 
ATOM     23  C26 UNK     0       5.098  -1.257   0.266  0.00  0.00    +0.000 C 
ATOM     24  C27 UNK     0       5.474   1.208   0.769  0.00  0.00    +0.000 C 
ATOM     25  C28 UNK     0      -5.257   0.432  -2.821  0.00  0.00    +0.000 C 
ATOM     26  C29 UNK     0      -5.635  -1.410  -1.192  0.00  0.00    +0.000 C 
ATOM     27  C30 UNK     0       5.938  -0.244   1.044  0.00  0.00    +0.000 C 
ATOM     28  C32 UNK     0       3.422   2.707   0.621  0.00  0.00    +0.000 C 
ATOM     29  C33 UNK     0       6.399   1.862  -0.275  0.00  0.00    +0.000 C 
ENDROOT
BRANCH  14  30
ATOM     30  C31 UNK     0       3.568  -2.046   2.109  0.00  0.00    +0.000 C 
ATOM     31  O3  UNK     0       2.549  -1.944   2.848  0.00  0.00    +0.000 OA
BRANCH  30  32
ATOM     32  O2  UNK     0       4.588  -2.918   2.486  0.00  0.00    +0.000 OA
ATOM     33  H81 UNK     0       4.533  -3.440   3.352  0.00  0.00    +0.000 HD
ENDBRANCH  30  32
ENDBRANCH  14  30
BRANCH  18  34
ATOM     34  O1  UNK     0      -6.283   0.423   0.713  0.00  0.00    +0.000 OA
ATOM     35  H77 UNK     0      -6.913   1.078   1.113  0.00  0.00    +0.000 HD
ENDBRANCH  18  34
TORSDOF 3
