REMARK  Name = C:\Users\Maximilian\Desktop\Conformers\converted_pdb\conformers_pdb\Ursolic Acid_conf_25.pdb
REMARK  10 active torsions:
REMARK  status: ('A' for Active; 'I' for Inactive)
REMARK    1  A    between atoms: C4_1  and  C19_16
REMARK    2  A    between atoms: C6_3  and  C22_19
REMARK    3  A    between atoms: C7_4  and  C25_22
REMARK    4  A    between atoms: C12_9  and  C28_25
REMARK    5  A    between atoms: C12_9  and  C29_26
REMARK    6  A    between atoms: C17_14  and  C31_30
REMARK    7  A    between atoms: C21_18  and  O1_34
REMARK    8  A    between atoms: C24_21  and  C32_28
REMARK    9  A    between atoms: C27_24  and  C33_29
REMARK   10  A    between atoms: C31_30  and  O2_32
REMARK                            x       y       z     vdW  Elec       q    Type
REMARK                         _______ _______ _______ _____ _____    ______ ____
ROOT
ATOM      1  C4  UNK     0       0.535   0.549  -0.832  0.00  0.00    +0.000 C 
ATOM      2  C5  UNK     0       1.200   0.315   0.586  0.00  0.00    +0.000 C 
ATOM      3  C6  UNK     0       2.768   0.598   0.757  0.00  0.00    +0.000 C 
ATOM      4  C7  UNK     0      -0.908  -0.189  -0.862  0.00  0.00    +0.000 C 
ATOM      5  C8  UNK     0       3.512  -0.054  -0.465  0.00  0.00    +0.000 C 
ATOM      6  C9  UNK     0       1.469  -0.011  -1.952  0.00  0.00    +0.000 C 
ATOM      7  C10 UNK     0      -1.737   0.177   0.395  0.00  0.00    +0.000 C 
ATOM      8  C11 UNK     0       2.926   0.433  -1.815  0.00  0.00    +0.000 C 
ATOM      9  C12 UNK     0       5.100  -0.062  -0.397  0.00  0.00    +0.000 C 
ATOM     10  C13 UNK     0      -3.276   0.045   0.422  0.00  0.00    +0.000 C 
ATOM     11  C14 UNK     0       0.315   0.937   1.686  0.00  0.00    +0.000 C 
ATOM     12  C15 UNK     0      -1.706   0.213  -2.151  0.00  0.00    +0.000 C 
ATOM     13  C16 UNK     0       3.259  -0.096   2.090  0.00  0.00    +0.000 C 
ATOM     14  C17 UNK     0      -3.951   0.454  -0.940  0.00  0.00    +0.000 C 
ATOM     15  C18 UNK     0      -3.184  -0.192  -2.123  0.00  0.00    +0.000 C 
ATOM     16  C19 UNK     0       0.339   2.081  -1.087  0.00  0.00    +0.000 C 
ATOM     17  C20 UNK     0      -1.136   0.574   1.546  0.00  0.00    +0.000 C 
ATOM     18  C21 UNK     0       5.613  -0.233   1.084  0.00  0.00    +0.000 C 
ATOM     19  C22 UNK     0       3.101   2.121   0.877  0.00  0.00    +0.000 C 
ATOM     20  C23 UNK     0       4.562  -0.908   1.977  0.00  0.00    +0.000 C 
ATOM     21  C24 UNK     0      -3.823  -1.330   0.934  0.00  0.00    +0.000 C 
ATOM     22  C25 UNK     0      -0.775  -1.749  -0.890  0.00  0.00    +0.000 C 
ATOM     23  C26 UNK     0      -5.437  -0.041  -0.998  0.00  0.00    +0.000 C 
ATOM     24  C27 UNK     0      -5.354  -1.223   1.255  0.00  0.00    +0.000 C 
ATOM     25  C28 UNK     0       5.620  -1.282  -1.210  0.00  0.00    +0.000 C 
ATOM     26  C29 UNK     0       5.731   1.198  -1.049  0.00  0.00    +0.000 C 
ATOM     27  C30 UNK     0      -6.070  -0.151   0.392  0.00  0.00    +0.000 C 
ATOM     28  C32 UNK     0      -3.058  -1.859   2.163  0.00  0.00    +0.000 C 
ATOM     29  C33 UNK     0      -6.052  -2.586   1.099  0.00  0.00    +0.000 C 
ENDROOT
BRANCH  14  30
ATOM     30  C31 UNK     0      -3.941   1.973  -1.110  0.00  0.00    +0.000 C 
ATOM     31  O3  UNK     0      -4.439   2.494  -2.145  0.00  0.00    +0.000 OA
BRANCH  30  32
ATOM     32  O2  UNK     0      -3.355   2.803  -0.155  0.00  0.00    +0.000 OA
ATOM     33  H81 UNK     0      -3.327   3.807  -0.285  0.00  0.00    +0.000 HD
ENDBRANCH  30  32
ENDBRANCH  14  30
BRANCH  18  34
ATOM     34  O1  UNK     0       6.006   0.992   1.653  0.00  0.00    +0.000 OA
ATOM     35  H77 UNK     0       6.559   0.784   2.452  0.00  0.00    +0.000 HD
ENDBRANCH  18  34
TORSDOF 3
