REMARK  Name = C:\Users\Maximilian\Desktop\Conformers\converted_pdb\conformers_pdb\Ursolic Acid_conf_17.pdb
REMARK  10 active torsions:
REMARK  status: ('A' for Active; 'I' for Inactive)
REMARK    1  A    between atoms: C4_1  and  C19_16
REMARK    2  A    between atoms: C6_3  and  C22_19
REMARK    3  A    between atoms: C7_4  and  C25_22
REMARK    4  A    between atoms: C12_9  and  C28_25
REMARK    5  A    between atoms: C12_9  and  C29_26
REMARK    6  A    between atoms: C17_14  and  C31_30
REMARK    7  A    between atoms: C21_18  and  O1_34
REMARK    8  A    between atoms: C24_21  and  C32_28
REMARK    9  A    between atoms: C27_24  and  C33_29
REMARK   10  A    between atoms: C31_30  and  O2_32
REMARK                            x       y       z     vdW  Elec       q    Type
REMARK                         _______ _______ _______ _____ _____    ______ ____
ROOT
ATOM      1  C4  UNK     0      -0.495   0.293   0.766  0.00  0.00    +0.000 C 
ATOM      2  C5  UNK     0      -1.249   0.134  -0.619  0.00  0.00    +0.000 C 
ATOM      3  C6  UNK     0      -2.821   0.441  -0.676  0.00  0.00    +0.000 C 
ATOM      4  C7  UNK     0       0.964  -0.412   0.652  0.00  0.00    +0.000 C 
ATOM      5  C8  UNK     0      -3.501  -0.293   0.537  0.00  0.00    +0.000 C 
ATOM      6  C9  UNK     0      -1.364  -0.354   1.896  0.00  0.00    +0.000 C 
ATOM      7  C10 UNK     0       1.707   0.085  -0.607  0.00  0.00    +0.000 C 
ATOM      8  C11 UNK     0      -2.832   0.084   1.882  0.00  0.00    +0.000 C 
ATOM      9  C12 UNK     0      -5.091  -0.278   0.563  0.00  0.00    +0.000 C 
ATOM     10  C13 UNK     0       3.243   0.199  -0.626  0.00  0.00    +0.000 C 
ATOM     11  C14 UNK     0      -0.432   0.774  -1.766  0.00  0.00    +0.000 C 
ATOM     12  C15 UNK     0       1.880  -0.160   1.906  0.00  0.00    +0.000 C 
ATOM     13  C16 UNK     0      -3.398  -0.156  -2.023  0.00  0.00    +0.000 C 
ATOM     14  C17 UNK     0       3.774   1.061   0.594  0.00  0.00    +0.000 C 
ATOM     15  C18 UNK     0       2.798   1.071   1.813  0.00  0.00    +0.000 C 
ATOM     16  C19 UNK     0      -0.310   1.798   1.117  0.00  0.00    +0.000 C 
ATOM     17  C20 UNK     0       1.034   0.443  -1.726  0.00  0.00    +0.000 C 
ATOM     18  C21 UNK     0      -5.694  -0.326  -0.893  0.00  0.00    +0.000 C 
ATOM     19  C22 UNK     0      -3.140   1.972  -0.665  0.00  0.00    +0.000 C 
ATOM     20  C23 UNK     0      -4.712  -0.950  -1.893  0.00  0.00    +0.000 C 
ATOM     21  C24 UNK     0       3.973  -1.175  -0.796  0.00  0.00    +0.000 C 
ATOM     22  C25 UNK     0       0.836  -1.969   0.530  0.00  0.00    +0.000 C 
ATOM     23  C26 UNK     0       5.157   0.521   1.074  0.00  0.00    +0.000 C 
ATOM     24  C27 UNK     0       5.522  -0.995  -0.935  0.00  0.00    +0.000 C 
ATOM     25  C28 UNK     0      -5.582  -1.553   1.309  0.00  0.00    +0.000 C 
ATOM     26  C29 UNK     0      -5.667   0.933   1.346  0.00  0.00    +0.000 C 
ATOM     27  C30 UNK     0       6.065   0.199  -0.113  0.00  0.00    +0.000 C 
ATOM     28  C32 UNK     0       3.424  -1.950  -2.015  0.00  0.00    +0.000 C 
ATOM     29  C33 UNK     0       6.269  -2.284  -0.539  0.00  0.00    +0.000 C 
ENDROOT
BRANCH  14  30
ATOM     30  C31 UNK     0       3.915   2.514   0.136  0.00  0.00    +0.000 C 
ATOM     31  O3  UNK     0       4.874   3.234   0.529  0.00  0.00    +0.000 OA
BRANCH  30  32
ATOM     32  O2  UNK     0       2.924   3.086  -0.660  0.00  0.00    +0.000 OA
ATOM     33  H81 UNK     0       2.983   4.055  -0.949  0.00  0.00    +0.000 HD
ENDBRANCH  30  32
ENDBRANCH  14  30
BRANCH  18  34
ATOM     34  O1  UNK     0      -6.091   0.946  -1.343  0.00  0.00    +0.000 OA
ATOM     35  H77 UNK     0      -6.680   0.810  -2.132  0.00  0.00    +0.000 HD
ENDBRANCH  18  34
TORSDOF 3
