REMARK  Name = C:\Users\Maximilian\Desktop\Conformers\converted_pdb\conformers_pdb\Ursolic Acid_conf_16.pdb
REMARK  10 active torsions:
REMARK  status: ('A' for Active; 'I' for Inactive)
REMARK    1  A    between atoms: C4_1  and  C19_16
REMARK    2  A    between atoms: C6_3  and  C22_19
REMARK    3  A    between atoms: C7_4  and  C25_22
REMARK    4  A    between atoms: C12_9  and  C28_25
REMARK    5  A    between atoms: C12_9  and  C29_26
REMARK    6  A    between atoms: C17_14  and  C31_30
REMARK    7  A    between atoms: C21_18  and  O1_34
REMARK    8  A    between atoms: C24_21  and  C32_28
REMARK    9  A    between atoms: C27_24  and  C33_29
REMARK   10  A    between atoms: C31_30  and  O2_32
REMARK                            x       y       z     vdW  Elec       q    Type
REMARK                         _______ _______ _______ _____ _____    ______ ____
ROOT
ATOM      1  C4  UNK     0      -0.632   0.735   0.158  0.00  0.00    +0.000 C 
ATOM      2  C5  UNK     0      -1.278  -0.661  -0.186  0.00  0.00    +0.000 C 
ATOM      3  C6  UNK     0      -2.745  -0.646  -0.791  0.00  0.00    +0.000 C 
ATOM      4  C7  UNK     0       0.746   0.453   0.948  0.00  0.00    +0.000 C 
ATOM      5  C8  UNK     0      -3.644   0.185   0.206  0.00  0.00    +0.000 C 
ATOM      6  C9  UNK     0      -1.642   1.556   1.020  0.00  0.00    +0.000 C 
ATOM      7  C10 UNK     0       1.708  -0.264  -0.003  0.00  0.00    +0.000 C 
ATOM      8  C11 UNK     0      -3.071   1.608   0.442  0.00  0.00    +0.000 C 
ATOM      9  C12 UNK     0      -5.205   0.109  -0.043  0.00  0.00    +0.000 C 
ATOM     10  C13 UNK     0       3.136   0.307  -0.239  0.00  0.00    +0.000 C 
ATOM     11  C14 UNK     0      -0.276  -1.630  -0.882  0.00  0.00    +0.000 C 
ATOM     12  C15 UNK     0       1.383   1.781   1.463  0.00  0.00    +0.000 C 
ATOM     13  C16 UNK     0      -3.286  -2.112  -0.807  0.00  0.00    +0.000 C 
ATOM     14  C17 UNK     0       3.801   0.939   1.059  0.00  0.00    +0.000 C 
ATOM     15  C18 UNK     0       2.781   1.598   2.047  0.00  0.00    +0.000 C 
ATOM     16  C19 UNK     0      -0.340   1.561  -1.144  0.00  0.00    +0.000 C 
ATOM     17  C20 UNK     0       1.188  -1.235  -0.812  0.00  0.00    +0.000 C 
ATOM     18  C21 UNK     0      -5.628  -1.396  -0.106  0.00  0.00    +0.000 C 
ATOM     19  C22 UNK     0      -2.759  -0.095  -2.256  0.00  0.00    +0.000 C 
ATOM     20  C23 UNK     0      -4.791  -2.216  -1.095  0.00  0.00    +0.000 C 
ATOM     21  C24 UNK     0       4.104  -0.703  -0.988  0.00  0.00    +0.000 C 
ATOM     22  C25 UNK     0       0.568  -0.493   2.187  0.00  0.00    +0.000 C 
ATOM     23  C26 UNK     0       4.546  -0.197   1.812  0.00  0.00    +0.000 C 
ATOM     24  C27 UNK     0       5.586  -0.640  -0.518  0.00  0.00    +0.000 C 
ATOM     25  C28 UNK     0      -5.958   0.746   1.158  0.00  0.00    +0.000 C 
ATOM     26  C29 UNK     0      -5.662   0.867  -1.317  0.00  0.00    +0.000 C 
ATOM     27  C30 UNK     0       5.696  -0.835   1.011  0.00  0.00    +0.000 C 
ATOM     28  C32 UNK     0       4.014  -0.488  -2.518  0.00  0.00    +0.000 C 
ATOM     29  C33 UNK     0       6.474  -1.683  -1.222  0.00  0.00    +0.000 C 
ENDROOT
BRANCH  14  30
ATOM     30  C31 UNK     0       4.782   2.048   0.673  0.00  0.00    +0.000 C 
ATOM     31  O3  UNK     0       5.798   2.277   1.386  0.00  0.00    +0.000 OA
BRANCH  30  32
ATOM     32  O2  UNK     0       4.515   2.886  -0.407  0.00  0.00    +0.000 OA
ATOM     33  H81 UNK     0       5.144   3.643  -0.647  0.00  0.00    +0.000 HD
ENDBRANCH  30  32
ENDBRANCH  14  30
BRANCH  18  34
ATOM     34  O1  UNK     0      -6.984  -1.519  -0.464  0.00  0.00    +0.000 OA
ATOM     35  H77 UNK     0      -7.493  -1.748   0.357  0.00  0.00    +0.000 HD
ENDBRANCH  18  34
TORSDOF 3
