REMARK  Name = C:\Users\Maximilian\Desktop\Conformers\converted_pdb\conformers_pdb\Ursolic Acid_conf_15.pdb
REMARK  10 active torsions:
REMARK  status: ('A' for Active; 'I' for Inactive)
REMARK    1  A    between atoms: C4_1  and  C19_16
REMARK    2  A    between atoms: C6_3  and  C22_19
REMARK    3  A    between atoms: C7_4  and  C25_22
REMARK    4  A    between atoms: C12_9  and  C28_25
REMARK    5  A    between atoms: C12_9  and  C29_26
REMARK    6  A    between atoms: C17_14  and  C31_30
REMARK    7  A    between atoms: C21_18  and  O1_34
REMARK    8  A    between atoms: C24_21  and  C32_28
REMARK    9  A    between atoms: C27_24  and  C33_29
REMARK   10  A    between atoms: C31_30  and  O2_32
REMARK                            x       y       z     vdW  Elec       q    Type
REMARK                         _______ _______ _______ _____ _____    ______ ____
ROOT
ATOM      1  C4  UNK     0       0.431   0.810   0.039  0.00  0.00    +0.000 C 
ATOM      2  C5  UNK     0       1.306  -0.499   0.113  0.00  0.00    +0.000 C 
ATOM      3  C6  UNK     0       2.867  -0.299   0.333  0.00  0.00    +0.000 C 
ATOM      4  C7  UNK     0      -1.042   0.385  -0.465  0.00  0.00    +0.000 C 
ATOM      5  C8  UNK     0       3.366   0.689  -0.793  0.00  0.00    +0.000 C 
ATOM      6  C9  UNK     0       1.090   1.838  -0.939  0.00  0.00    +0.000 C 
ATOM      7  C10 UNK     0      -1.643  -0.575   0.582  0.00  0.00    +0.000 C 
ATOM      8  C11 UNK     0       2.602   2.038  -0.739  0.00  0.00    +0.000 C 
ATOM      9  C12 UNK     0       4.936   0.807  -0.966  0.00  0.00    +0.000 C 
ATOM     10  C13 UNK     0      -3.153  -0.645   0.853  0.00  0.00    +0.000 C 
ATOM     11  C14 UNK     0       0.654  -1.596   1.010  0.00  0.00    +0.000 C 
ATOM     12  C15 UNK     0      -1.930   1.660  -0.722  0.00  0.00    +0.000 C 
ATOM     13  C16 UNK     0       3.566  -1.681   0.114  0.00  0.00    +0.000 C 
ATOM     14  C17 UNK     0      -3.775   0.787   0.823  0.00  0.00    +0.000 C 
ATOM     15  C18 UNK     0      -3.439   1.456  -0.536  0.00  0.00    +0.000 C 
ATOM     16  C19 UNK     0       0.349   1.481   1.457  0.00  0.00    +0.000 C 
ATOM     17  C20 UNK     0      -0.841  -1.466   1.218  0.00  0.00    +0.000 C 
ATOM     18  C21 UNK     0       5.526  -0.635  -1.123  0.00  0.00    +0.000 C 
ATOM     19  C22 UNK     0       3.198   0.203   1.780  0.00  0.00    +0.000 C 
ATOM     20  C23 UNK     0       5.094  -1.598  -0.004  0.00  0.00    +0.000 C 
ATOM     21  C24 UNK     0      -3.894  -1.661  -0.092  0.00  0.00    +0.000 C 
ATOM     22  C25 UNK     0      -1.035  -0.419  -1.809  0.00  0.00    +0.000 C 
ATOM     23  C26 UNK     0      -5.308   0.715   1.033  0.00  0.00    +0.000 C 
ATOM     24  C27 UNK     0      -5.424  -1.674   0.208  0.00  0.00    +0.000 C 
ATOM     25  C28 UNK     0       5.260   1.578  -2.277  0.00  0.00    +0.000 C 
ATOM     26  C29 UNK     0       5.620   1.576   0.194  0.00  0.00    +0.000 C 
ATOM     27  C30 UNK     0      -6.006  -0.257   0.084  0.00  0.00    +0.000 C 
ATOM     28  C32 UNK     0      -3.301  -3.081   0.034  0.00  0.00    +0.000 C 
ATOM     29  C33 UNK     0      -6.210  -2.615  -0.725  0.00  0.00    +0.000 C 
ENDROOT
BRANCH  14  30
ATOM     30  C31 UNK     0      -3.238   1.650   1.961  0.00  0.00    +0.000 C 
ATOM     31  O3  UNK     0      -2.683   1.129   2.967  0.00  0.00    +0.000 OA
BRANCH  30  32
ATOM     32  O2  UNK     0      -3.426   3.030   1.930  0.00  0.00    +0.000 OA
ATOM     33  H81 UNK     0      -3.092   3.617   2.686  0.00  0.00    +0.000 HD
ENDBRANCH  30  32
ENDBRANCH  14  30
BRANCH  18  34
ATOM     34  O1  UNK     0       6.929  -0.621  -1.253  0.00  0.00    +0.000 OA
ATOM     35  H77 UNK     0       7.324  -0.456  -0.357  0.00  0.00    +0.000 HD
ENDBRANCH  18  34
TORSDOF 3
