REMARK  Name = C:\Users\Maximilian\Desktop\Conformers\converted_pdb\conformers_pdb\Ursolic Acid_conf_1.pdb
REMARK  10 active torsions:
REMARK  status: ('A' for Active; 'I' for Inactive)
REMARK    1  A    between atoms: C4_1  and  C19_16
REMARK    2  A    between atoms: C6_3  and  C22_19
REMARK    3  A    between atoms: C7_4  and  C25_22
REMARK    4  A    between atoms: C12_9  and  C28_25
REMARK    5  A    between atoms: C12_9  and  C29_26
REMARK    6  A    between atoms: C17_14  and  C31_30
REMARK    7  A    between atoms: C21_18  and  O1_34
REMARK    8  A    between atoms: C24_21  and  C32_28
REMARK    9  A    between atoms: C27_24  and  C33_29
REMARK   10  A    between atoms: C31_30  and  O2_32
REMARK                            x       y       z     vdW  Elec       q    Type
REMARK                         _______ _______ _______ _____ _____    ______ ____
ROOT
ATOM      1  C4  UNK     0      -0.612  -0.328   0.688  0.00  0.00    +0.000 C 
ATOM      2  C5  UNK     0      -1.352   0.027  -0.655  0.00  0.00    +0.000 C 
ATOM      3  C6  UNK     0      -2.840   0.572  -0.533  0.00  0.00    +0.000 C 
ATOM      4  C7  UNK     0       0.781  -1.040   0.301  0.00  0.00    +0.000 C 
ATOM      5  C8  UNK     0      -3.651  -0.477   0.325  0.00  0.00    +0.000 C 
ATOM      6  C9  UNK     0      -1.527  -1.272   1.529  0.00  0.00    +0.000 C 
ATOM      7  C10 UNK     0       1.660   0.007  -0.387  0.00  0.00    +0.000 C 
ATOM      8  C11 UNK     0      -2.974  -0.768   1.690  0.00  0.00    +0.000 C 
ATOM      9  C12 UNK     0      -5.220  -0.235   0.408  0.00  0.00    +0.000 C 
ATOM     10  C13 UNK     0       3.082   0.307   0.164  0.00  0.00    +0.000 C 
ATOM     11  C14 UNK     0      -0.423   0.789  -1.656  0.00  0.00    +0.000 C 
ATOM     12  C15 UNK     0       1.485  -1.615   1.570  0.00  0.00    +0.000 C 
ATOM     13  C16 UNK     0      -3.465   0.658  -1.980  0.00  0.00    +0.000 C 
ATOM     14  C17 UNK     0       3.848  -0.981   0.690  0.00  0.00    +0.000 C 
ATOM     15  C18 UNK     0       2.917  -2.076   1.313  0.00  0.00    +0.000 C 
ATOM     16  C19 UNK     0      -0.326   0.977   1.523  0.00  0.00    +0.000 C 
ATOM     17  C20 UNK     0       1.049   0.843  -1.280  0.00  0.00    +0.000 C 
ATOM     18  C21 UNK     0      -5.781   0.391  -0.926  0.00  0.00    +0.000 C 
ATOM     19  C22 UNK     0      -2.886   1.996   0.099  0.00  0.00    +0.000 C 
ATOM     20  C23 UNK     0      -4.879   0.069  -2.125  0.00  0.00    +0.000 C 
ATOM     21  C24 UNK     0       3.964   1.182  -0.823  0.00  0.00    +0.000 C 
ATOM     22  C25 UNK     0       0.619  -2.224  -0.714  0.00  0.00    +0.000 C 
ATOM     23  C26 UNK     0       4.600  -1.612  -0.512  0.00  0.00    +0.000 C 
ATOM     24  C27 UNK     0       5.473   0.805  -0.837  0.00  0.00    +0.000 C 
ATOM     25  C28 UNK     0      -5.921  -1.609   0.606  0.00  0.00    +0.000 C 
ATOM     26  C29 UNK     0      -5.623   0.641   1.624  0.00  0.00    +0.000 C 
ATOM     27  C30 UNK     0       5.671  -0.697  -1.136  0.00  0.00    +0.000 C 
ATOM     28  C32 UNK     0       3.787   2.685  -0.502  0.00  0.00    +0.000 C 
ATOM     29  C33 UNK     0       6.278   1.630  -1.859  0.00  0.00    +0.000 C 
ENDROOT
BRANCH  14  30
ATOM     30  C31 UNK     0       4.845  -0.609   1.789  0.00  0.00    +0.000 C 
ATOM     31  O3  UNK     0       4.572   0.292   2.629  0.00  0.00    +0.000 OA
BRANCH  30  32
ATOM     32  O2  UNK     0       6.026  -1.334   1.937  0.00  0.00    +0.000 OA
ATOM     33  H81 UNK     0       6.679  -1.117   2.680  0.00  0.00    +0.000 HD
ENDBRANCH  30  32
ENDBRANCH  14  30
BRANCH  18  34
ATOM     34  O1  UNK     0      -5.959   1.782  -0.823  0.00  0.00    +0.000 OA
ATOM     35  H77 UNK     0      -6.534   2.063  -1.583  0.00  0.00    +0.000 HD
ENDBRANCH  18  34
TORSDOF 3
