REMARK  Name = C:\Users\Maximilian\Desktop\Conformers\converted_pdb\conformers_pdb\Ursolic Acid_conf_20.pdb
REMARK  10 active torsions:
REMARK  status: ('A' for Active; 'I' for Inactive)
REMARK    1  A    between atoms: C4_1  and  C19_16
REMARK    2  A    between atoms: C6_3  and  C22_19
REMARK    3  A    between atoms: C7_4  and  C25_22
REMARK    4  A    between atoms: C12_9  and  C28_25
REMARK    5  A    between atoms: C12_9  and  C29_26
REMARK    6  A    between atoms: C17_14  and  C31_30
REMARK    7  A    between atoms: C21_18  and  O1_34
REMARK    8  A    between atoms: C24_21  and  C32_28
REMARK    9  A    between atoms: C27_24  and  C33_29
REMARK   10  A    between atoms: C31_30  and  O2_32
REMARK                            x       y       z     vdW  Elec       q    Type
REMARK                         _______ _______ _______ _____ _____    ______ ____
ROOT
ATOM      1  C4  UNK     0       0.533  -0.792   0.572  0.00  0.00    +0.000 C 
ATOM      2  C5  UNK     0       1.289   0.147  -0.453  0.00  0.00    +0.000 C 
ATOM      3  C6  UNK     0       2.891   0.171  -0.440  0.00  0.00    +0.000 C 
ATOM      4  C7  UNK     0      -1.020  -0.335   0.655  0.00  0.00    +0.000 C 
ATOM      5  C8  UNK     0       3.362   0.271   1.057  0.00  0.00    +0.000 C 
ATOM      6  C9  UNK     0       1.217  -0.700   1.974  0.00  0.00    +0.000 C 
ATOM      7  C10 UNK     0      -1.622  -0.183  -0.763  0.00  0.00    +0.000 C 
ATOM      8  C11 UNK     0       2.738  -0.850   1.926  0.00  0.00    +0.000 C 
ATOM      9  C12 UNK     0       4.918   0.501   1.287  0.00  0.00    +0.000 C 
ATOM     10  C13 UNK     0      -3.147  -0.240  -1.011  0.00  0.00    +0.000 C 
ATOM     11  C14 UNK     0       0.665  -0.003  -1.856  0.00  0.00    +0.000 C 
ATOM     12  C15 UNK     0      -1.859  -1.379   1.470  0.00  0.00    +0.000 C 
ATOM     13  C16 UNK     0       3.378   1.457  -1.221  0.00  0.00    +0.000 C 
ATOM     14  C17 UNK     0      -3.874  -1.306  -0.110  0.00  0.00    +0.000 C 
ATOM     15  C18 UNK     0      -3.375  -1.191   1.354  0.00  0.00    +0.000 C 
ATOM     16  C19 UNK     0       0.611  -2.281   0.093  0.00  0.00    +0.000 C 
ATOM     17  C20 UNK     0      -0.836   0.069  -1.842  0.00  0.00    +0.000 C 
ATOM     18  C21 UNK     0       5.540   1.410   0.155  0.00  0.00    +0.000 C 
ATOM     19  C22 UNK     0       3.525  -1.070  -1.150  0.00  0.00    +0.000 C 
ATOM     20  C23 UNK     0       4.478   2.281  -0.524  0.00  0.00    +0.000 C 
ATOM     21  C24 UNK     0      -3.887   1.138  -0.968  0.00  0.00    +0.000 C 
ATOM     22  C25 UNK     0      -1.194   1.042   1.381  0.00  0.00    +0.000 C 
ATOM     23  C26 UNK     0      -5.425  -1.074  -0.112  0.00  0.00    +0.000 C 
ATOM     24  C27 UNK     0      -5.324   1.005  -1.578  0.00  0.00    +0.000 C 
ATOM     25  C28 UNK     0       5.108   1.254   2.635  0.00  0.00    +0.000 C 
ATOM     26  C29 UNK     0       5.705  -0.831   1.418  0.00  0.00    +0.000 C 
ATOM     27  C30 UNK     0      -5.915  -0.420  -1.407  0.00  0.00    +0.000 C 
ATOM     28  C32 UNK     0      -3.108   2.259  -1.683  0.00  0.00    +0.000 C 
ATOM     29  C33 UNK     0      -6.282   2.053  -0.982  0.00  0.00    +0.000 C 
ENDROOT
BRANCH  14  30
ATOM     30  C31 UNK     0      -3.597  -2.721  -0.621  0.00  0.00    +0.000 C 
ATOM     31  O3  UNK     0      -4.111  -3.714  -0.036  0.00  0.00    +0.000 OA
BRANCH  30  32
ATOM     32  O2  UNK     0      -2.751  -2.942  -1.706  0.00  0.00    +0.000 OA
ATOM     33  H81 UNK     0      -2.559  -3.881  -2.035  0.00  0.00    +0.000 HD
ENDBRANCH  30  32
ENDBRANCH  14  30
BRANCH  18  34
ATOM     34  O1  UNK     0       6.216   0.667  -0.830  0.00  0.00    +0.000 OA
ATOM     35  H77 UNK     0       7.158   0.564  -0.534  0.00  0.00    +0.000 HD
ENDBRANCH  18  34
TORSDOF 3
