REMARK  Name = C:\Users\Maximilian\Desktop\Conformers\converted_pdb\conformers_pdb\Ursolic Acid_conf_18.pdb
REMARK  10 active torsions:
REMARK  status: ('A' for Active; 'I' for Inactive)
REMARK    1  A    between atoms: C4_1  and  C19_16
REMARK    2  A    between atoms: C6_3  and  C22_19
REMARK    3  A    between atoms: C7_4  and  C25_22
REMARK    4  A    between atoms: C12_9  and  C28_25
REMARK    5  A    between atoms: C12_9  and  C29_26
REMARK    6  A    between atoms: C17_14  and  C31_30
REMARK    7  A    between atoms: C21_18  and  O1_34
REMARK    8  A    between atoms: C24_21  and  C32_28
REMARK    9  A    between atoms: C27_24  and  C33_29
REMARK   10  A    between atoms: C31_30  and  O2_32
REMARK                            x       y       z     vdW  Elec       q    Type
REMARK                         _______ _______ _______ _____ _____    ______ ____
ROOT
ATOM      1  C4  UNK     0       0.500  -0.877   0.287  0.00  0.00    +0.000 C 
ATOM      2  C5  UNK     0       1.240   0.220  -0.577  0.00  0.00    +0.000 C 
ATOM      3  C6  UNK     0       2.829   0.125  -0.741  0.00  0.00    +0.000 C 
ATOM      4  C7  UNK     0      -0.964  -0.299   0.659  0.00  0.00    +0.000 C 
ATOM      5  C8  UNK     0       3.440  -0.175   0.678  0.00  0.00    +0.000 C 
ATOM      6  C9  UNK     0       1.322  -1.225   1.574  0.00  0.00    +0.000 C 
ATOM      7  C10 UNK     0      -1.716   0.064  -0.646  0.00  0.00    +0.000 C 
ATOM      8  C11 UNK     0       2.812  -1.441   1.312  0.00  0.00    +0.000 C 
ATOM      9  C12 UNK     0       5.024  -0.098   0.790  0.00  0.00    +0.000 C 
ATOM     10  C13 UNK     0      -3.253   0.073  -0.716  0.00  0.00    +0.000 C 
ATOM     11  C14 UNK     0       0.465   0.457  -1.900  0.00  0.00    +0.000 C 
ATOM     12  C15 UNK     0      -1.756  -1.353   1.512  0.00  0.00    +0.000 C 
ATOM     13  C16 UNK     0       3.361   1.524  -1.252  0.00  0.00    +0.000 C 
ATOM     14  C17 UNK     0      -3.832  -1.176   0.022  0.00  0.00    +0.000 C 
ATOM     15  C18 UNK     0      -3.285  -1.205   1.474  0.00  0.00    +0.000 C 
ATOM     16  C19 UNK     0       0.348  -2.203  -0.540  0.00  0.00    +0.000 C 
ATOM     17  C20 UNK     0      -1.035   0.500  -1.737  0.00  0.00    +0.000 C 
ATOM     18  C21 UNK     0       5.619   1.009  -0.162  0.00  0.00    +0.000 C 
ATOM     19  C22 UNK     0       3.275  -0.948  -1.787  0.00  0.00    +0.000 C 
ATOM     20  C23 UNK     0       4.579   2.087  -0.498  0.00  0.00    +0.000 C 
ATOM     21  C24 UNK     0      -3.885   1.431  -0.241  0.00  0.00    +0.000 C 
ATOM     22  C25 UNK     0      -0.913   1.027   1.495  0.00  0.00    +0.000 C 
ATOM     23  C26 UNK     0      -5.382  -1.138   0.019  0.00  0.00    +0.000 C 
ATOM     24  C27 UNK     0      -5.440   1.366  -0.313  0.00  0.00    +0.000 C 
ATOM     25  C28 UNK     0       5.394   0.300   2.248  0.00  0.00    +0.000 C 
ATOM     26  C29 UNK     0       5.707  -1.468   0.525  0.00  0.00    +0.000 C 
ATOM     27  C30 UNK     0      -5.963   0.184   0.517  0.00  0.00    +0.000 C 
ATOM     28  C32 UNK     0      -3.347   2.617  -1.071  0.00  0.00    +0.000 C 
ATOM     29  C33 UNK     0      -6.115   2.658   0.185  0.00  0.00    +0.000 C 
ENDROOT
BRANCH  14  30
ATOM     30  C31 UNK     0      -3.445  -2.463  -0.703  0.00  0.00    +0.000 C 
ATOM     31  O3  UNK     0      -3.546  -3.575  -0.115  0.00  0.00    +0.000 OA
BRANCH  30  32
ATOM     32  O2  UNK     0      -3.057  -2.440  -2.041  0.00  0.00    +0.000 OA
ATOM     33  H81 UNK     0      -2.819  -3.295  -2.529  0.00  0.00    +0.000 HD
ENDBRANCH  30  32
ENDBRANCH  14  30
BRANCH  18  34
ATOM     34  O1  UNK     0       6.141   0.461  -1.348  0.00  0.00    +0.000 OA
ATOM     35  H77 UNK     0       6.711   1.158  -1.770  0.00  0.00    +0.000 HD
ENDBRANCH  18  34
TORSDOF 3
