REMARK  Name = C:\Users\Maximilian\Desktop\Conformers\converted_pdb\conformers_pdb\Ursolic Acid_conf_13.pdb
REMARK  10 active torsions:
REMARK  status: ('A' for Active; 'I' for Inactive)
REMARK    1  A    between atoms: C4_1  and  C19_16
REMARK    2  A    between atoms: C6_3  and  C22_19
REMARK    3  A    between atoms: C7_4  and  C25_22
REMARK    4  A    between atoms: C12_9  and  C28_25
REMARK    5  A    between atoms: C12_9  and  C29_26
REMARK    6  A    between atoms: C17_14  and  C31_30
REMARK    7  A    between atoms: C21_18  and  O1_34
REMARK    8  A    between atoms: C24_21  and  C32_28
REMARK    9  A    between atoms: C27_24  and  C33_29
REMARK   10  A    between atoms: C31_30  and  O2_32
REMARK                            x       y       z     vdW  Elec       q    Type
REMARK                         _______ _______ _______ _____ _____    ______ ____
ROOT
ATOM      1  C4  UNK     0       0.604  -0.347   0.929  0.00  0.00    +0.000 C 
ATOM      2  C5  UNK     0       1.196  -0.349  -0.539  0.00  0.00    +0.000 C 
ATOM      3  C6  UNK     0       2.773  -0.555  -0.734  0.00  0.00    +0.000 C 
ATOM      4  C7  UNK     0      -0.889   0.286   0.893  0.00  0.00    +0.000 C 
ATOM      5  C8  UNK     0       3.512   0.370   0.301  0.00  0.00    +0.000 C 
ATOM      6  C9  UNK     0       1.535   0.481   1.872  0.00  0.00    +0.000 C 
ATOM      7  C10 UNK     0      -1.735  -0.369  -0.227  0.00  0.00    +0.000 C 
ATOM      8  C11 UNK     0       3.016   0.116   1.747  0.00  0.00    +0.000 C 
ATOM      9  C12 UNK     0       5.091   0.471   0.151  0.00  0.00    +0.000 C 
ATOM     10  C13 UNK     0      -3.281  -0.341  -0.203  0.00  0.00    +0.000 C 
ATOM     11  C14 UNK     0       0.319  -1.230  -1.452  0.00  0.00    +0.000 C 
ATOM     12  C15 UNK     0      -1.607   0.085   2.272  0.00  0.00    +0.000 C 
ATOM     13  C16 UNK     0       3.159  -0.103  -2.199  0.00  0.00    +0.000 C 
ATOM     14  C17 UNK     0      -3.876  -0.513   1.244  0.00  0.00    +0.000 C 
ATOM     15  C18 UNK     0      -3.109   0.390   2.245  0.00  0.00    +0.000 C 
ATOM     16  C19 UNK     0       0.534  -1.810   1.482  0.00  0.00    +0.000 C 
ATOM     17  C20 UNK     0      -1.150  -0.947  -1.308  0.00  0.00    +0.000 C 
ATOM     18  C21 UNK     0       5.535   0.382  -1.360  0.00  0.00    +0.000 C 
ATOM     19  C22 UNK     0       3.216  -2.047  -0.578  0.00  0.00    +0.000 C 
ATOM     20  C23 UNK     0       4.403   0.799  -2.311  0.00  0.00    +0.000 C 
ATOM     21  C24 UNK     0      -3.939   0.870  -0.947  0.00  0.00    +0.000 C 
ATOM     22  C25 UNK     0      -0.870   1.827   0.618  0.00  0.00    +0.000 C 
ATOM     23  C26 UNK     0      -5.388  -0.097   1.279  0.00  0.00    +0.000 C 
ATOM     24  C27 UNK     0      -5.470   0.611  -1.164  0.00  0.00    +0.000 C 
ATOM     25  C28 UNK     0       5.545   1.860   0.685  0.00  0.00    +0.000 C 
ATOM     26  C29 UNK     0       5.840  -0.591   1.000  0.00  0.00    +0.000 C 
ATOM     27  C30 UNK     0      -6.079  -0.305  -0.071  0.00  0.00    +0.000 C 
ATOM     28  C32 UNK     0      -3.258   1.189  -2.292  0.00  0.00    +0.000 C 
ATOM     29  C33 UNK     0      -6.252   1.934  -1.247  0.00  0.00    +0.000 C 
ENDROOT
BRANCH  14  30
ATOM     30  C31 UNK     0      -3.761  -1.968   1.701  0.00  0.00    +0.000 C 
ATOM     31  O3  UNK     0      -4.260  -2.324   2.804  0.00  0.00    +0.000 OA
BRANCH  30  32
ATOM     32  O2  UNK     0      -3.056  -2.906   0.947  0.00  0.00    +0.000 OA
ATOM     33  H81 UNK     0      -2.961  -3.863   1.264  0.00  0.00    +0.000 HD
ENDBRANCH  30  32
ENDBRANCH  14  30
BRANCH  18  34
ATOM     34  O1  UNK     0       5.997  -0.902  -1.701  0.00  0.00    +0.000 OA
ATOM     35  H77 UNK     0       6.492  -0.817  -2.560  0.00  0.00    +0.000 HD
ENDBRANCH  18  34
TORSDOF 3
