REMARK  Name = C:\Users\Maximilian\Desktop\Conformers\converted_pdb\conformers_pdb\Ursolic Acid_conf_9.pdb
REMARK  10 active torsions:
REMARK  status: ('A' for Active; 'I' for Inactive)
REMARK    1  A    between atoms: C4_1  and  C19_16
REMARK    2  A    between atoms: C6_3  and  C22_19
REMARK    3  A    between atoms: C7_4  and  C25_22
REMARK    4  A    between atoms: C12_9  and  C28_25
REMARK    5  A    between atoms: C12_9  and  C29_26
REMARK    6  A    between atoms: C17_14  and  C31_30
REMARK    7  A    between atoms: C21_18  and  O1_34
REMARK    8  A    between atoms: C24_21  and  C32_28
REMARK    9  A    between atoms: C27_24  and  C33_29
REMARK   10  A    between atoms: C31_30  and  O2_32
REMARK                            x       y       z     vdW  Elec       q    Type
REMARK                         _______ _______ _______ _____ _____    ______ ____
ROOT
ATOM      1  C4  UNK     0       0.658   0.868   0.383  0.00  0.00    +0.000 C 
ATOM      2  C5  UNK     0       1.253  -0.565   0.073  0.00  0.00    +0.000 C 
ATOM      3  C6  UNK     0       2.843  -0.742   0.008  0.00  0.00    +0.000 C 
ATOM      4  C7  UNK     0      -0.915   0.880  -0.015  0.00  0.00    +0.000 C 
ATOM      5  C8  UNK     0       3.431   0.443  -0.842  0.00  0.00    +0.000 C 
ATOM      6  C9  UNK     0       1.447   1.949  -0.424  0.00  0.00    +0.000 C 
ATOM      7  C10 UNK     0      -1.639  -0.356   0.575  0.00  0.00    +0.000 C 
ATOM      8  C11 UNK     0       2.966   1.818  -0.299  0.00  0.00    +0.000 C 
ATOM      9  C12 UNK     0       4.980   0.353  -1.186  0.00  0.00    +0.000 C 
ATOM     10  C13 UNK     0      -3.171  -0.385   0.769  0.00  0.00    +0.000 C 
ATOM     11  C14 UNK     0       0.532  -1.623   0.931  0.00  0.00    +0.000 C 
ATOM     12  C15 UNK     0      -1.610   2.184   0.508  0.00  0.00    +0.000 C 
ATOM     13  C16 UNK     0       3.164  -2.108  -0.724  0.00  0.00    +0.000 C 
ATOM     14  C17 UNK     0      -3.755   0.989   1.267  0.00  0.00    +0.000 C 
ATOM     15  C18 UNK     0      -3.142   2.151   0.434  0.00  0.00    +0.000 C 
ATOM     16  C19 UNK     0       0.810   1.197   1.907  0.00  0.00    +0.000 C 
ATOM     17  C20 UNK     0      -0.964  -1.493   0.880  0.00  0.00    +0.000 C 
ATOM     18  C21 UNK     0       5.435  -1.139  -1.413  0.00  0.00    +0.000 C 
ATOM     19  C22 UNK     0       3.503  -0.807   1.424  0.00  0.00    +0.000 C 
ATOM     20  C23 UNK     0       4.257  -2.040  -1.809  0.00  0.00    +0.000 C 
ATOM     21  C24 UNK     0      -3.998  -0.944  -0.439  0.00  0.00    +0.000 C 
ATOM     22  C25 UNK     0      -1.128   0.851  -1.566  0.00  0.00    +0.000 C 
ATOM     23  C26 UNK     0      -5.309   1.035   1.087  0.00  0.00    +0.000 C 
ATOM     24  C27 UNK     0      -5.459  -1.276   0.015  0.00  0.00    +0.000 C 
ATOM     25  C28 UNK     0       5.232   1.119  -2.516  0.00  0.00    +0.000 C 
ATOM     26  C29 UNK     0       5.872   1.035  -0.116  0.00  0.00    +0.000 C 
ATOM     27  C30 UNK     0      -5.947  -0.357   1.168  0.00  0.00    +0.000 C 
ATOM     28  C32 UNK     0      -3.344  -2.177  -1.092  0.00  0.00    +0.000 C 
ATOM     29  C33 UNK     0      -6.443  -1.217  -1.167  0.00  0.00    +0.000 C 
ENDROOT
BRANCH  14  30
ATOM     30  C31 UNK     0      -3.462   1.177   2.757  0.00  0.00    +0.000 C 
ATOM     31  O3  UNK     0      -3.248   2.326   3.233  0.00  0.00    +0.000 OA
BRANCH  30  32
ATOM     32  O2  UNK     0      -3.525   0.094   3.630  0.00  0.00    +0.000 OA
ATOM     33  H81 UNK     0      -3.365   0.216   4.624  0.00  0.00    +0.000 HD
ENDBRANCH  30  32
ENDBRANCH  14  30
BRANCH  18  34
ATOM     34  O1  UNK     0       6.084  -1.674  -0.286  0.00  0.00    +0.000 OA
ATOM     35  H77 UNK     0       6.563  -2.491  -0.584  0.00  0.00    +0.000 HD
ENDBRANCH  18  34
TORSDOF 3
