REMARK  Name = C:\Users\Maximilian\Desktop\Conformers\converted_pdb\conformers_pdb\Ursolic Acid_conf_10.pdb
REMARK  10 active torsions:
REMARK  status: ('A' for Active; 'I' for Inactive)
REMARK    1  A    between atoms: C4_1  and  C19_16
REMARK    2  A    between atoms: C6_3  and  C22_19
REMARK    3  A    between atoms: C7_4  and  C25_22
REMARK    4  A    between atoms: C12_9  and  C28_25
REMARK    5  A    between atoms: C12_9  and  C29_26
REMARK    6  A    between atoms: C17_14  and  C31_30
REMARK    7  A    between atoms: C21_18  and  O1_34
REMARK    8  A    between atoms: C24_21  and  C32_28
REMARK    9  A    between atoms: C27_24  and  C33_29
REMARK   10  A    between atoms: C31_30  and  O2_32
REMARK                            x       y       z     vdW  Elec       q    Type
REMARK                         _______ _______ _______ _____ _____    ______ ____
ROOT
ATOM      1  C4  UNK     0       0.582  -0.905  -0.212  0.00  0.00    +0.000 C 
ATOM      2  C5  UNK     0       1.220   0.534  -0.367  0.00  0.00    +0.000 C 
ATOM      3  C6  UNK     0       2.807   0.657  -0.561  0.00  0.00    +0.000 C 
ATOM      4  C7  UNK     0      -0.917  -0.751   0.383  0.00  0.00    +0.000 C 
ATOM      5  C8  UNK     0       3.497  -0.291   0.487  0.00  0.00    +0.000 C 
ATOM      6  C9  UNK     0       1.469  -1.777   0.733  0.00  0.00    +0.000 C 
ATOM      7  C10 UNK     0      -1.720   0.282  -0.443  0.00  0.00    +0.000 C 
ATOM      8  C11 UNK     0       2.957  -1.740   0.384  0.00  0.00    +0.000 C 
ATOM      9  C12 UNK     0       5.078  -0.179   0.599  0.00  0.00    +0.000 C 
ATOM     10  C13 UNK     0      -3.264   0.276  -0.476  0.00  0.00    +0.000 C 
ATOM     11  C14 UNK     0       0.388   1.370  -1.363  0.00  0.00    +0.000 C 
ATOM     12  C15 UNK     0      -1.653  -2.136   0.371  0.00  0.00    +0.000 C 
ATOM     13  C16 UNK     0       3.233   2.151  -0.264  0.00  0.00    +0.000 C 
ATOM     14  C17 UNK     0      -3.866  -1.177  -0.496  0.00  0.00    +0.000 C 
ATOM     15  C18 UNK     0      -3.168  -2.046   0.583  0.00  0.00    +0.000 C 
ATOM     16  C19 UNK     0       0.514  -1.616  -1.607  0.00  0.00    +0.000 C 
ATOM     17  C20 UNK     0      -1.094   1.281  -1.120  0.00  0.00    +0.000 C 
ATOM     18  C21 UNK     0       5.569   1.305   0.369  0.00  0.00    +0.000 C 
ATOM     19  C22 UNK     0       3.272   0.326  -2.016  0.00  0.00    +0.000 C 
ATOM     20  C23 UNK     0       4.459   2.323   0.653  0.00  0.00    +0.000 C 
ATOM     21  C24 UNK     0      -3.962   1.162   0.608  0.00  0.00    +0.000 C 
ATOM     22  C25 UNK     0      -0.930  -0.253   1.867  0.00  0.00    +0.000 C 
ATOM     23  C26 UNK     0      -5.400  -1.154  -0.179  0.00  0.00    +0.000 C 
ATOM     24  C27 UNK     0      -5.479   1.353   0.262  0.00  0.00    +0.000 C 
ATOM     25  C28 UNK     0       5.498  -0.581   2.042  0.00  0.00    +0.000 C 
ATOM     26  C29 UNK     0       5.814  -1.158  -0.356  0.00  0.00    +0.000 C 
ATOM     27  C30 UNK     0      -6.059   0.174  -0.562  0.00  0.00    +0.000 C 
ATOM     28  C32 UNK     0      -3.283   2.533   0.791  0.00  0.00    +0.000 C 
ATOM     29  C33 UNK     0      -6.316   1.576   1.535  0.00  0.00    +0.000 C 
ENDROOT
BRANCH  14  30
ATOM     30  C31 UNK     0      -3.672  -1.823  -1.868  0.00  0.00    +0.000 C 
ATOM     31  O3  UNK     0      -3.961  -3.039  -2.037  0.00  0.00    +0.000 OA
BRANCH  30  32
ATOM     32  O2  UNK     0      -3.190  -1.089  -2.951  0.00  0.00    +0.000 OA
ATOM     33  H81 UNK     0      -3.062  -1.522  -3.858  0.00  0.00    +0.000 HD
ENDBRANCH  30  32
ENDBRANCH  14  30
BRANCH  18  34
ATOM     34  O1  UNK     0       6.062   1.521  -0.931  0.00  0.00    +0.000 OA
ATOM     35  H77 UNK     0       7.029   1.299  -0.925  0.00  0.00    +0.000 HD
ENDBRANCH  18  34
TORSDOF 3
