REMARK  Name = C:\Users\Maximilian\Desktop\Conformers\converted_pdb\conformers_pdb\Ursolic Acid_conf_2.pdb
REMARK  10 active torsions:
REMARK  status: ('A' for Active; 'I' for Inactive)
REMARK    1  A    between atoms: C4_1  and  C19_16
REMARK    2  A    between atoms: C6_3  and  C22_19
REMARK    3  A    between atoms: C7_4  and  C25_22
REMARK    4  A    between atoms: C12_9  and  C28_25
REMARK    5  A    between atoms: C12_9  and  C29_26
REMARK    6  A    between atoms: C17_14  and  C31_30
REMARK    7  A    between atoms: C21_18  and  O1_34
REMARK    8  A    between atoms: C24_21  and  C32_28
REMARK    9  A    between atoms: C27_24  and  C33_29
REMARK   10  A    between atoms: C31_30  and  O2_32
REMARK                            x       y       z     vdW  Elec       q    Type
REMARK                         _______ _______ _______ _____ _____    ______ ____
ROOT
ATOM      1  C4  UNK     0      -0.486  -0.703   0.402  0.00  0.00    +0.000 C 
ATOM      2  C5  UNK     0      -1.246   0.633   0.052  0.00  0.00    +0.000 C 
ATOM      3  C6  UNK     0      -2.792   0.689   0.413  0.00  0.00    +0.000 C 
ATOM      4  C7  UNK     0       0.965  -0.639  -0.301  0.00  0.00    +0.000 C 
ATOM      5  C8  UNK     0      -3.466  -0.573  -0.251  0.00  0.00    +0.000 C 
ATOM      6  C9  UNK     0      -1.310  -1.934  -0.104  0.00  0.00    +0.000 C 
ATOM      7  C10 UNK     0       1.729   0.561   0.296  0.00  0.00    +0.000 C 
ATOM      8  C11 UNK     0      -2.809  -1.889   0.242  0.00  0.00    +0.000 C 
ATOM      9  C12 UNK     0      -5.048  -0.578  -0.283  0.00  0.00    +0.000 C 
ATOM     10  C13 UNK     0       3.259   0.567   0.436  0.00  0.00    +0.000 C 
ATOM     11  C14 UNK     0      -0.434   1.900   0.462  0.00  0.00    +0.000 C 
ATOM     12  C15 UNK     0       1.728  -2.007  -0.131  0.00  0.00    +0.000 C 
ATOM     13  C16 UNK     0      -3.399   1.965  -0.253  0.00  0.00    +0.000 C 
ATOM     14  C17 UNK     0       3.765  -0.839   0.890  0.00  0.00    +0.000 C 
ATOM     15  C18 UNK     0       3.259  -1.907  -0.114  0.00  0.00    +0.000 C 
ATOM     16  C19 UNK     0      -0.330  -0.842   1.960  0.00  0.00    +0.000 C 
ATOM     17  C20 UNK     0       1.059   1.697   0.614  0.00  0.00    +0.000 C 
ATOM     18  C21 UNK     0      -5.543   0.763  -0.914  0.00  0.00    +0.000 C 
ATOM     19  C22 UNK     0      -3.032   0.770   1.960  0.00  0.00    +0.000 C 
ATOM     20  C23 UNK     0      -4.934   2.003  -0.245  0.00  0.00    +0.000 C 
ATOM     21  C24 UNK     0       3.986   1.099  -0.853  0.00  0.00    +0.000 C 
ATOM     22  C25 UNK     0       0.901  -0.365  -1.841  0.00  0.00    +0.000 C 
ATOM     23  C26 UNK     0       5.312  -0.855   0.974  0.00  0.00    +0.000 C 
ATOM     24  C27 UNK     0       5.533   1.062  -0.663  0.00  0.00    +0.000 C 
ATOM     25  C28 UNK     0      -5.550  -1.726  -1.204  0.00  0.00    +0.000 C 
ATOM     26  C29 UNK     0      -5.690  -0.804   1.111  0.00  0.00    +0.000 C 
ATOM     27  C30 UNK     0       5.995  -0.358  -0.300  0.00  0.00    +0.000 C 
ATOM     28  C32 UNK     0       3.513   2.522  -1.220  0.00  0.00    +0.000 C 
ATOM     29  C33 UNK     0       6.301   1.527  -1.915  0.00  0.00    +0.000 C 
ENDROOT
BRANCH  14  30
ATOM     30  C31 UNK     0       3.267  -1.180   2.292  0.00  0.00    +0.000 C 
ATOM     31  O3  UNK     0       2.883  -0.276   3.084  0.00  0.00    +0.000 OA
BRANCH  30  32
ATOM     32  O2  UNK     0       3.309  -2.499   2.740  0.00  0.00    +0.000 OA
ATOM     33  H81 UNK     0       3.002  -2.740   3.675  0.00  0.00    +0.000 HD
ENDBRANCH  30  32
ENDBRANCH  14  30
BRANCH  18  34
ATOM     34  O1  UNK     0      -6.946   0.846  -0.852  0.00  0.00    +0.000 OA
ATOM     35  H77 UNK     0      -7.230   1.506  -1.538  0.00  0.00    +0.000 HD
ENDBRANCH  18  34
TORSDOF 3
