REMARK  Name = C:\Users\Maximilian\Desktop\Conformers\converted_pdb\conformers_pdb\Ursolic Acid_conf_29.pdb
REMARK  10 active torsions:
REMARK  status: ('A' for Active; 'I' for Inactive)
REMARK    1  A    between atoms: C4_1  and  C19_16
REMARK    2  A    between atoms: C6_3  and  C22_19
REMARK    3  A    between atoms: C7_4  and  C25_22
REMARK    4  A    between atoms: C12_9  and  C28_25
REMARK    5  A    between atoms: C12_9  and  C29_26
REMARK    6  A    between atoms: C17_14  and  C31_30
REMARK    7  A    between atoms: C21_18  and  O1_34
REMARK    8  A    between atoms: C24_21  and  C32_28
REMARK    9  A    between atoms: C27_24  and  C33_29
REMARK   10  A    between atoms: C31_30  and  O2_32
REMARK                            x       y       z     vdW  Elec       q    Type
REMARK                         _______ _______ _______ _____ _____    ______ ____
ROOT
ATOM      1  C4  UNK     0       0.550   0.283   1.139  0.00  0.00    +0.000 C 
ATOM      2  C5  UNK     0       1.260  -0.723   0.150  0.00  0.00    +0.000 C 
ATOM      3  C6  UNK     0       2.839  -0.762   0.194  0.00  0.00    +0.000 C 
ATOM      4  C7  UNK     0      -0.895   0.619   0.503  0.00  0.00    +0.000 C 
ATOM      5  C8  UNK     0       3.310   0.659  -0.283  0.00  0.00    +0.000 C 
ATOM      6  C9  UNK     0       1.445   1.560   1.398  0.00  0.00    +0.000 C 
ATOM      7  C10 UNK     0      -1.643  -0.706   0.181  0.00  0.00    +0.000 C 
ATOM      8  C11 UNK     0       2.652   1.852   0.474  0.00  0.00    +0.000 C 
ATOM      9  C12 UNK     0       4.854   0.824  -0.578  0.00  0.00    +0.000 C 
ATOM     10  C13 UNK     0      -3.183  -0.736   0.126  0.00  0.00    +0.000 C 
ATOM     11  C14 UNK     0       0.518  -2.071   0.126  0.00  0.00    +0.000 C 
ATOM     12  C15 UNK     0      -1.798   1.485   1.461  0.00  0.00    +0.000 C 
ATOM     13  C16 UNK     0       3.367  -1.815  -0.834  0.00  0.00    +0.000 C 
ATOM     14  C17 UNK     0      -3.833  -0.139   1.450  0.00  0.00    +0.000 C 
ATOM     15  C18 UNK     0      -2.802   0.672   2.295  0.00  0.00    +0.000 C 
ATOM     16  C19 UNK     0       0.327  -0.375   2.547  0.00  0.00    +0.000 C 
ATOM     17  C20 UNK     0      -0.975  -1.878  -0.028  0.00  0.00    +0.000 C 
ATOM     18  C21 UNK     0       5.284  -0.300  -1.579  0.00  0.00    +0.000 C 
ATOM     19  C22 UNK     0       3.357  -1.147   1.604  0.00  0.00    +0.000 C 
ATOM     20  C23 UNK     0       4.874  -1.714  -1.124  0.00  0.00    +0.000 C 
ATOM     21  C24 UNK     0      -3.744  -0.114  -1.199  0.00  0.00    +0.000 C 
ATOM     22  C25 UNK     0      -0.720   1.428  -0.830  0.00  0.00    +0.000 C 
ATOM     23  C26 UNK     0      -5.028   0.790   1.103  0.00  0.00    +0.000 C 
ATOM     24  C27 UNK     0      -5.308  -0.163  -1.254  0.00  0.00    +0.000 C 
ATOM     25  C28 UNK     0       5.091   2.188  -1.285  0.00  0.00    +0.000 C 
ATOM     26  C29 UNK     0       5.736   0.805   0.703  0.00  0.00    +0.000 C 
ATOM     27  C30 UNK     0      -5.980   0.117   0.114  0.00  0.00    +0.000 C 
ATOM     28  C32 UNK     0      -3.150  -0.826  -2.437  0.00  0.00    +0.000 C 
ATOM     29  C33 UNK     0      -5.860   0.813  -2.312  0.00  0.00    +0.000 C 
ENDROOT
BRANCH  14  30
ATOM     30  C31 UNK     0      -4.374  -1.244   2.369  0.00  0.00    +0.000 C 
ATOM     31  O3  UNK     0      -4.728  -0.957   3.546  0.00  0.00    +0.000 OA
BRANCH  30  32
ATOM     32  O2  UNK     0      -4.546  -2.553   1.924  0.00  0.00    +0.000 OA
ATOM     33  H81 UNK     0      -4.923  -3.267   2.537  0.00  0.00    +0.000 HD
ENDBRANCH  30  32
ENDBRANCH  14  30
BRANCH  18  34
ATOM     34  O1  UNK     0       6.661  -0.247  -1.871  0.00  0.00    +0.000 OA
ATOM     35  H77 UNK     0       7.158  -0.600  -1.090  0.00  0.00    +0.000 HD
ENDBRANCH  18  34
TORSDOF 3
