REMARK  Name = C:\Users\Maximilian\Desktop\Conformers\converted_pdb\conformers_pdb\Ursolic Acid_conf_3.pdb
REMARK  10 active torsions:
REMARK  status: ('A' for Active; 'I' for Inactive)
REMARK    1  A    between atoms: C4_1  and  C19_16
REMARK    2  A    between atoms: C6_3  and  C22_19
REMARK    3  A    between atoms: C7_4  and  C25_22
REMARK    4  A    between atoms: C12_9  and  C28_25
REMARK    5  A    between atoms: C12_9  and  C29_26
REMARK    6  A    between atoms: C17_14  and  C31_30
REMARK    7  A    between atoms: C21_18  and  O1_34
REMARK    8  A    between atoms: C24_21  and  C32_28
REMARK    9  A    between atoms: C27_24  and  C33_29
REMARK   10  A    between atoms: C31_30  and  O2_32
REMARK                            x       y       z     vdW  Elec       q    Type
REMARK                         _______ _______ _______ _____ _____    ______ ____
ROOT
ATOM      1  C4  UNK     0       0.530  -0.514  -0.260  0.00  0.00    +0.000 C 
ATOM      2  C5  UNK     0       1.111   0.680   0.600  0.00  0.00    +0.000 C 
ATOM      3  C6  UNK     0       2.664   0.988   0.446  0.00  0.00    +0.000 C 
ATOM      4  C7  UNK     0      -0.990  -0.787   0.219  0.00  0.00    +0.000 C 
ATOM      5  C8  UNK     0       3.432  -0.360   0.730  0.00  0.00    +0.000 C 
ATOM      6  C9  UNK     0       1.453  -1.768  -0.066  0.00  0.00    +0.000 C 
ATOM      7  C10 UNK     0      -1.807   0.495   0.030  0.00  0.00    +0.000 C 
ATOM      8  C11 UNK     0       2.960  -1.489  -0.221  0.00  0.00    +0.000 C 
ATOM      9  C12 UNK     0       5.001  -0.242   0.913  0.00  0.00    +0.000 C 
ATOM     10  C13 UNK     0      -3.240   0.441  -0.502  0.00  0.00    +0.000 C 
ATOM     11  C14 UNK     0       0.200   1.944   0.589  0.00  0.00    +0.000 C 
ATOM     12  C15 UNK     0      -1.678  -1.995  -0.531  0.00  0.00    +0.000 C 
ATOM     13  C16 UNK     0       3.071   2.015   1.554  0.00  0.00    +0.000 C 
ATOM     14  C17 UNK     0      -3.240  -0.299  -1.879  0.00  0.00    +0.000 C 
ATOM     15  C18 UNK     0      -2.539  -1.703  -1.787  0.00  0.00    +0.000 C 
ATOM     16  C19 UNK     0       0.533  -0.167  -1.777  0.00  0.00    +0.000 C 
ATOM     17  C20 UNK     0      -1.259   1.704   0.289  0.00  0.00    +0.000 C 
ATOM     18  C21 UNK     0       5.289   0.849   1.998  0.00  0.00    +0.000 C 
ATOM     19  C22 UNK     0       2.998   1.606  -0.954  0.00  0.00    +0.000 C 
ATOM     20  C23 UNK     0       4.587   2.189   1.720  0.00  0.00    +0.000 C 
ATOM     21  C24 UNK     0      -4.257  -0.134   0.537  0.00  0.00    +0.000 C 
ATOM     22  C25 UNK     0      -1.079  -1.116   1.749  0.00  0.00    +0.000 C 
ATOM     23  C26 UNK     0      -4.699  -0.446  -2.395  0.00  0.00    +0.000 C 
ATOM     24  C27 UNK     0      -5.684  -0.210  -0.077  0.00  0.00    +0.000 C 
ATOM     25  C28 UNK     0       5.569  -1.585   1.453  0.00  0.00    +0.000 C 
ATOM     26  C29 UNK     0       5.749   0.067  -0.410  0.00  0.00    +0.000 C 
ATOM     27  C30 UNK     0      -5.659  -1.046  -1.364  0.00  0.00    +0.000 C 
ATOM     28  C32 UNK     0      -4.260   0.729   1.819  0.00  0.00    +0.000 C 
ATOM     29  C33 UNK     0      -6.713  -0.815   0.895  0.00  0.00    +0.000 C 
ENDROOT
BRANCH  14  30
ATOM     30  C31 UNK     0      -2.523   0.552  -2.931  0.00  0.00    +0.000 C 
ATOM     31  O3  UNK     0      -2.241   0.059  -4.059  0.00  0.00    +0.000 OA
BRANCH  30  32
ATOM     32  O2  UNK     0      -2.259   1.902  -2.707  0.00  0.00    +0.000 OA
ATOM     33  H81 UNK     0      -1.808   2.469  -3.414  0.00  0.00    +0.000 HD
ENDBRANCH  30  32
ENDBRANCH  14  30
BRANCH  18  34
ATOM     34  O1  UNK     0       6.670   1.042   2.198  0.00  0.00    +0.000 OA
ATOM     35  H77 UNK     0       7.022   1.578   1.441  0.00  0.00    +0.000 HD
ENDBRANCH  18  34
TORSDOF 3
