REMARK  Name = C:\Users\Maximilian\Desktop\Conformers\converted_pdb\conformers_pdb\Ursolic Acid_conf_5.pdb
REMARK  10 active torsions:
REMARK  status: ('A' for Active; 'I' for Inactive)
REMARK    1  A    between atoms: C4_1  and  C19_16
REMARK    2  A    between atoms: C6_3  and  C22_19
REMARK    3  A    between atoms: C7_4  and  C25_22
REMARK    4  A    between atoms: C12_9  and  C28_25
REMARK    5  A    between atoms: C12_9  and  C29_26
REMARK    6  A    between atoms: C17_14  and  C31_30
REMARK    7  A    between atoms: C21_18  and  O1_34
REMARK    8  A    between atoms: C24_21  and  C32_28
REMARK    9  A    between atoms: C27_24  and  C33_29
REMARK   10  A    between atoms: C31_30  and  O2_32
REMARK                            x       y       z     vdW  Elec       q    Type
REMARK                         _______ _______ _______ _____ _____    ______ ____
ROOT
ATOM      1  C4  UNK     0       0.648   0.716   0.150  0.00  0.00    +0.000 C 
ATOM      2  C5  UNK     0       1.279  -0.488  -0.645  0.00  0.00    +0.000 C 
ATOM      3  C6  UNK     0       2.772  -0.896  -0.289  0.00  0.00    +0.000 C 
ATOM      4  C7  UNK     0      -0.776   1.055  -0.529  0.00  0.00    +0.000 C 
ATOM      5  C8  UNK     0       3.651   0.410  -0.398  0.00  0.00    +0.000 C 
ATOM      6  C9  UNK     0       1.631   1.926   0.077  0.00  0.00    +0.000 C 
ATOM      7  C10 UNK     0      -1.703  -0.142  -0.305  0.00  0.00    +0.000 C 
ATOM      8  C11 UNK     0       3.086   1.579   0.453  0.00  0.00    +0.000 C 
ATOM      9  C12 UNK     0       5.223   0.202  -0.269  0.00  0.00    +0.000 C 
ATOM     10  C13 UNK     0      -3.088   0.068   0.371  0.00  0.00    +0.000 C 
ATOM     11  C14 UNK     0       0.280  -1.677  -0.823  0.00  0.00    +0.000 C 
ATOM     12  C15 UNK     0      -1.399   2.352   0.077  0.00  0.00    +0.000 C 
ATOM     13  C16 UNK     0       3.270  -1.942  -1.363  0.00  0.00    +0.000 C 
ATOM     14  C17 UNK     0      -3.813   1.415  -0.056  0.00  0.00    +0.000 C 
ATOM     15  C18 UNK     0      -2.837   2.598  -0.370  0.00  0.00    +0.000 C 
ATOM     16  C19 UNK     0       0.441   0.342   1.662  0.00  0.00    +0.000 C 
ATOM     17  C20 UNK     0      -1.165  -1.389  -0.457  0.00  0.00    +0.000 C 
ATOM     18  C21 UNK     0       5.666  -1.204  -0.823  0.00  0.00    +0.000 C 
ATOM     19  C22 UNK     0       2.869  -1.553   1.126  0.00  0.00    +0.000 C 
ATOM     20  C23 UNK     0       4.697  -1.719  -1.896  0.00  0.00    +0.000 C 
ATOM     21  C24 UNK     0      -4.039  -1.198   0.262  0.00  0.00    +0.000 C 
ATOM     22  C25 UNK     0      -0.691   1.265  -2.081  0.00  0.00    +0.000 C 
ATOM     23  C26 UNK     0      -4.649   1.124  -1.332  0.00  0.00    +0.000 C 
ATOM     24  C27 UNK     0      -5.546  -0.852   0.082  0.00  0.00    +0.000 C 
ATOM     25  C28 UNK     0       5.934   1.288  -1.127  0.00  0.00    +0.000 C 
ATOM     26  C29 UNK     0       5.745   0.386   1.182  0.00  0.00    +0.000 C 
ATOM     27  C30 UNK     0      -5.764   0.080  -1.130  0.00  0.00    +0.000 C 
ATOM     28  C32 UNK     0      -3.839  -2.119   1.489  0.00  0.00    +0.000 C 
ATOM     29  C33 UNK     0      -6.423  -2.107  -0.086  0.00  0.00    +0.000 C 
ENDROOT
BRANCH  14  30
ATOM     30  C31 UNK     0      -4.721   1.914   1.071  0.00  0.00    +0.000 C 
ATOM     31  O3  UNK     0      -5.784   2.539   0.805  0.00  0.00    +0.000 OA
BRANCH  30  32
ATOM     32  O2  UNK     0      -4.335   1.777   2.402  0.00  0.00    +0.000 OA
ATOM     33  H81 UNK     0      -4.913   2.137   3.151  0.00  0.00    +0.000 HD
ENDBRANCH  30  32
ENDBRANCH  14  30
BRANCH  18  34
ATOM     34  O1  UNK     0       5.790  -2.157   0.204  0.00  0.00    +0.000 OA
ATOM     35  H77 UNK     0       6.294  -2.927  -0.167  0.00  0.00    +0.000 HD
ENDBRANCH  18  34
TORSDOF 3
