REMARK  Name = C:\Users\Maximilian\Desktop\Conformers\converted_pdb\conformers_pdb\Ursolic Acid_conf_8.pdb
REMARK  10 active torsions:
REMARK  status: ('A' for Active; 'I' for Inactive)
REMARK    1  A    between atoms: C4_1  and  C19_16
REMARK    2  A    between atoms: C6_3  and  C22_19
REMARK    3  A    between atoms: C7_4  and  C25_22
REMARK    4  A    between atoms: C12_9  and  C28_25
REMARK    5  A    between atoms: C12_9  and  C29_26
REMARK    6  A    between atoms: C17_14  and  C31_30
REMARK    7  A    between atoms: C21_18  and  O1_34
REMARK    8  A    between atoms: C24_21  and  C32_28
REMARK    9  A    between atoms: C27_24  and  C33_29
REMARK   10  A    between atoms: C31_30  and  O2_32
REMARK                            x       y       z     vdW  Elec       q    Type
REMARK                         _______ _______ _______ _____ _____    ______ ____
ROOT
ATOM      1  C4  UNK     0       0.772   0.917   0.485  0.00  0.00    +0.000 C 
ATOM      2  C5  UNK     0       1.215  -0.592   0.312  0.00  0.00    +0.000 C 
ATOM      3  C6  UNK     0       2.774  -0.943   0.342  0.00  0.00    +0.000 C 
ATOM      4  C7  UNK     0      -0.746   1.047  -0.057  0.00  0.00    +0.000 C 
ATOM      5  C8  UNK     0       3.518   0.106  -0.565  0.00  0.00    +0.000 C 
ATOM      6  C9  UNK     0       1.729   1.880  -0.299  0.00  0.00    +0.000 C 
ATOM      7  C10 UNK     0      -1.662  -0.023   0.571  0.00  0.00    +0.000 C 
ATOM      8  C11 UNK     0       3.213   1.558  -0.125  0.00  0.00    +0.000 C 
ATOM      9  C12 UNK     0       5.056  -0.181  -0.852  0.00  0.00    +0.000 C 
ATOM     10  C13 UNK     0      -3.171   0.271   0.790  0.00  0.00    +0.000 C 
ATOM     11  C14 UNK     0       0.333  -1.496   1.196  0.00  0.00    +0.000 C 
ATOM     12  C15 UNK     0      -1.337   2.432   0.350  0.00  0.00    +0.000 C 
ATOM     13  C16 UNK     0       2.973  -2.390  -0.265  0.00  0.00    +0.000 C 
ATOM     14  C17 UNK     0      -3.770   1.515  -0.011  0.00  0.00    +0.000 C 
ATOM     15  C18 UNK     0      -2.757   2.706  -0.148  0.00  0.00    +0.000 C 
ATOM     16  C19 UNK     0       0.832   1.335   1.994  0.00  0.00    +0.000 C 
ATOM     17  C20 UNK     0      -1.133  -1.160   1.108  0.00  0.00    +0.000 C 
ATOM     18  C21 UNK     0       5.350  -1.727  -0.940  0.00  0.00    +0.000 C 
ATOM     19  C22 UNK     0       3.360  -0.963   1.791  0.00  0.00    +0.000 C 
ATOM     20  C23 UNK     0       4.093  -2.523  -1.313  0.00  0.00    +0.000 C 
ATOM     21  C24 UNK     0      -4.079  -1.032   0.689  0.00  0.00    +0.000 C 
ATOM     22  C25 UNK     0      -0.821   0.876  -1.617  0.00  0.00    +0.000 C 
ATOM     23  C26 UNK     0      -4.253   1.112  -1.454  0.00  0.00    +0.000 C 
ATOM     24  C27 UNK     0      -5.266  -0.910  -0.303  0.00  0.00    +0.000 C 
ATOM     25  C28 UNK     0       5.422   0.438  -2.231  0.00  0.00    +0.000 C 
ATOM     26  C29 UNK     0       5.991   0.489   0.192  0.00  0.00    +0.000 C 
ATOM     27  C30 UNK     0      -4.748  -0.328  -1.617  0.00  0.00    +0.000 C 
ATOM     28  C32 UNK     0      -4.571  -1.475   2.084  0.00  0.00    +0.000 C 
ATOM     29  C33 UNK     0      -5.940  -2.269  -0.576  0.00  0.00    +0.000 C 
ENDROOT
BRANCH  14  30
ATOM     30  C31 UNK     0      -4.986   2.082   0.739  0.00  0.00    +0.000 C 
ATOM     31  O3  UNK     0      -5.253   1.733   1.921  0.00  0.00    +0.000 OA
BRANCH  30  32
ATOM     32  O2  UNK     0      -5.773   3.065   0.142  0.00  0.00    +0.000 OA
ATOM     33  H81 UNK     0      -6.561   3.470   0.632  0.00  0.00    +0.000 HD
ENDBRANCH  30  32
ENDBRANCH  14  30
BRANCH  18  34
ATOM     34  O1  UNK     0       5.895  -2.232   0.254  0.00  0.00    +0.000 OA
ATOM     35  H77 UNK     0       6.327  -3.100   0.039  0.00  0.00    +0.000 HD
ENDBRANCH  18  34
TORSDOF 3
