REMARK  Name = C:\Users\Maximilian\Desktop\Conformers\converted_pdb\conformers_pdb\VGX_1027_conf_74.pdb
REMARK  6 active torsions:
REMARK  status: ('A' for Active; 'I' for Inactive)
REMARK    1  A    between atoms: C23_5  and  N7_22
REMARK    2  A    between atoms: N6_7  and  C17_9
REMARK    3  A    between atoms: C14_11  and  N5_15
REMARK    4  A    between atoms: C13_17  and  C10_19
REMARK    5  A    between atoms: N7_22  and  C21_24
REMARK    6  A    between atoms: C24_26  and  C29_30
REMARK                            x       y       z     vdW  Elec       q    Type
REMARK                         _______ _______ _______ _____ _____    ______ ____
ROOT
ATOM      1  N8  UNK     0      -1.242  -3.058   1.604  0.00  0.00    +0.000 NA
ATOM      2  N9  UNK     0      -3.248  -1.857   1.341  0.00  0.00    +0.000 NA
ATOM      3  C20 UNK     0      -0.527  -2.045   1.047  0.00  0.00    +0.000 A 
ATOM      4  C22 UNK     0      -1.199  -0.901   0.591  0.00  0.00    +0.000 A 
ATOM      5  C23 UNK     0      -2.584  -0.816   0.769  0.00  0.00    +0.000 A 
ATOM      6  C30 UNK     0      -2.588  -2.968   1.757  0.00  0.00    +0.000 A 
ATOM      7  N6  UNK     0       0.890  -2.203   0.874  0.00  0.00    +0.000 N 
ATOM      8  H41 UNK     0       1.256  -3.177   0.773  0.00  0.00    +0.000 HD
ENDROOT
BRANCH   7   9
ATOM      9  C17 UNK     0       1.836  -1.121   0.838  0.00  0.00    +0.000 A 
ATOM     10  C15 UNK     0       3.002  -1.251   0.069  0.00  0.00    +0.000 A 
ATOM     11  C14 UNK     0       3.965  -0.229   0.044  0.00  0.00    +0.000 A 
ATOM     12  C16 UNK     0       3.739   0.943   0.788  0.00  0.00    +0.000 A 
ATOM     13  C18 UNK     0       2.592   1.067   1.575  0.00  0.00    +0.000 A 
ATOM     14  C19 UNK     0       1.650   0.038   1.612  0.00  0.00    +0.000 A 
BRANCH  11  15
ATOM     15  N5  UNK     0       5.131  -0.378  -0.785  0.00  0.00    +0.000 N 
ATOM     16  H36 UNK     0       5.054  -1.022  -1.602  0.00  0.00    +0.000 HD
ATOM     17  C13 UNK     0       6.414   0.192  -0.461  0.00  0.00    +0.000 C 
ATOM     18  O4  UNK     0       6.667   0.524   0.728  0.00  0.00    +0.000 OA
BRANCH  17  19
ATOM     19  C10 UNK     0       7.506   0.381  -1.488  0.00  0.00    +0.000 C 
ATOM     20  C12 UNK     0       7.100   0.414  -2.954  0.00  0.00    +0.000 C 
ATOM     21  C11 UNK     0       7.792  -0.816  -2.382  0.00  0.00    +0.000 C 
ENDBRANCH  17  19
ENDBRANCH  11  15
ENDBRANCH   7   9
BRANCH   5  22
ATOM     22  N7  UNK     0      -3.300   0.337   0.294  0.00  0.00    +0.000 N 
ATOM     23  H43 UNK     0      -2.830   0.951  -0.409  0.00  0.00    +0.000 HD
BRANCH  22  24
ATOM     24  C21 UNK     0      -4.658   0.642   0.652  0.00  0.00    +0.000 A 
ATOM     25  C25 UNK     0      -5.493   1.270  -0.286  0.00  0.00    +0.000 A 
ATOM     26  C24 UNK     0      -6.823   1.594   0.038  0.00  0.00    +0.000 A 
ATOM     27  C27 UNK     0      -7.291   1.337   1.338  0.00  0.00    +0.000 A 
ATOM     28  C28 UNK     0      -6.457   0.736   2.283  0.00  0.00    +0.000 A 
ATOM     29  C26 UNK     0      -5.147   0.390   1.945  0.00  0.00    +0.000 A 
BRANCH  26  30
ATOM     30  C29 UNK     0      -7.705   2.301  -0.961  0.00  0.00    +0.000 C 
ATOM     31  F1  UNK     0      -7.345   1.970  -2.256  0.00  0.00    +0.000 F 
ATOM     32  F2  UNK     0      -7.579   3.667  -0.793  0.00  0.00    +0.000 F 
ATOM     33  F3  UNK     0      -9.030   1.944  -0.776  0.00  0.00    +0.000 F 
ENDBRANCH  26  30
ENDBRANCH  22  24
ENDBRANCH   5  22
TORSDOF 6
