REMARK  Name = C:\Users\Maximilian\Desktop\Conformers\converted_pdb\conformers_pdb\VGX_1027_conf_29.pdb
REMARK  6 active torsions:
REMARK  status: ('A' for Active; 'I' for Inactive)
REMARK    1  A    between atoms: C23_5  and  N7_22
REMARK    2  A    between atoms: N6_7  and  C17_9
REMARK    3  A    between atoms: C14_11  and  N5_15
REMARK    4  A    between atoms: C13_17  and  C10_19
REMARK    5  A    between atoms: N7_22  and  C21_24
REMARK    6  A    between atoms: C24_26  and  C29_30
REMARK                            x       y       z     vdW  Elec       q    Type
REMARK                         _______ _______ _______ _____ _____    ______ ____
ROOT
ATOM      1  N8  UNK     0      -0.770   1.130   0.153  0.00  0.00    +0.000 NA
ATOM      2  N9  UNK     0      -3.021   0.587   0.567  0.00  0.00    +0.000 NA
ATOM      3  C20 UNK     0      -0.470  -0.175  -0.092  0.00  0.00    +0.000 A 
ATOM      4  C22 UNK     0      -1.478  -1.141   0.011  0.00  0.00    +0.000 A 
ATOM      5  C23 UNK     0      -2.777  -0.731   0.332  0.00  0.00    +0.000 A 
ATOM      6  C30 UNK     0      -2.032   1.512   0.475  0.00  0.00    +0.000 A 
ATOM      7  N6  UNK     0       0.876  -0.572  -0.400  0.00  0.00    +0.000 N 
ATOM      8  H41 UNK     0       1.134  -1.576  -0.264  0.00  0.00    +0.000 HD
ENDROOT
BRANCH   7   9
ATOM      9  C17 UNK     0       1.918   0.344  -0.777  0.00  0.00    +0.000 A 
ATOM     10  C15 UNK     0       3.239   0.083  -0.383  0.00  0.00    +0.000 A 
ATOM     11  C14 UNK     0       4.284   0.951  -0.752  0.00  0.00    +0.000 A 
ATOM     12  C16 UNK     0       3.997   2.057  -1.565  0.00  0.00    +0.000 A 
ATOM     13  C18 UNK     0       2.688   2.309  -1.980  0.00  0.00    +0.000 A 
ATOM     14  C19 UNK     0       1.652   1.457  -1.593  0.00  0.00    +0.000 A 
BRANCH  11  15
ATOM     15  N5  UNK     0       5.644   0.694  -0.363  0.00  0.00    +0.000 N 
ATOM     16  H36 UNK     0       6.396   1.075  -0.979  0.00  0.00    +0.000 HD
ATOM     17  C13 UNK     0       6.010   0.071   0.884  0.00  0.00    +0.000 C 
ATOM     18  O4  UNK     0       5.192   0.070   1.843  0.00  0.00    +0.000 OA
BRANCH  17  19
ATOM     19  C10 UNK     0       7.362  -0.561   1.115  0.00  0.00    +0.000 C 
ATOM     20  C12 UNK     0       8.565   0.267   0.691  0.00  0.00    +0.000 C 
ATOM     21  C11 UNK     0       8.171  -0.968  -0.109  0.00  0.00    +0.000 C 
ENDBRANCH  17  19
ENDBRANCH  11  15
ENDBRANCH   7   9
BRANCH   5  22
ATOM     22  N7  UNK     0      -3.825  -1.706   0.463  0.00  0.00    +0.000 N 
ATOM     23  H43 UNK     0      -3.550  -2.706   0.598  0.00  0.00    +0.000 HD
BRANCH  22  24
ATOM     24  C21 UNK     0      -5.223  -1.378   0.532  0.00  0.00    +0.000 A 
ATOM     25  C25 UNK     0      -5.767  -0.328  -0.230  0.00  0.00    +0.000 A 
ATOM     26  C24 UNK     0      -7.138  -0.025  -0.158  0.00  0.00    +0.000 A 
ATOM     27  C27 UNK     0      -7.974  -0.826   0.639  0.00  0.00    +0.000 A 
ATOM     28  C28 UNK     0      -7.441  -1.885   1.378  0.00  0.00    +0.000 A 
ATOM     29  C26 UNK     0      -6.074  -2.162   1.323  0.00  0.00    +0.000 A 
BRANCH  26  30
ATOM     30  C29 UNK     0      -7.720   1.075  -1.010  0.00  0.00    +0.000 C 
ATOM     31  F1  UNK     0      -8.057   0.563  -2.249  0.00  0.00    +0.000 F 
ATOM     32  F2  UNK     0      -6.802   2.097  -1.178  0.00  0.00    +0.000 F 
ATOM     33  F3  UNK     0      -8.854   1.606  -0.418  0.00  0.00    +0.000 F 
ENDBRANCH  26  30
ENDBRANCH  22  24
ENDBRANCH   5  22
TORSDOF 6
