REMARK  Name = C:\Users\Maximilian\Desktop\Conformers\converted_pdb\conformers_pdb\VGX_1027_conf_3.pdb
REMARK  6 active torsions:
REMARK  status: ('A' for Active; 'I' for Inactive)
REMARK    1  A    between atoms: C23_5  and  N7_22
REMARK    2  A    between atoms: N6_7  and  C17_9
REMARK    3  A    between atoms: C14_11  and  N5_15
REMARK    4  A    between atoms: C13_17  and  C10_19
REMARK    5  A    between atoms: N7_22  and  C21_24
REMARK    6  A    between atoms: C24_26  and  C29_30
REMARK                            x       y       z     vdW  Elec       q    Type
REMARK                         _______ _______ _______ _____ _____    ______ ____
ROOT
ATOM      1  N8  UNK     0      -0.778  -0.991   0.517  0.00  0.00    +0.000 NA
ATOM      2  N9  UNK     0      -3.119  -1.069   0.294  0.00  0.00    +0.000 NA
ATOM      3  C20 UNK     0      -0.672  -0.198  -0.584  0.00  0.00    +0.000 A 
ATOM      4  C22 UNK     0      -1.832   0.189  -1.266  0.00  0.00    +0.000 A 
ATOM      5  C23 UNK     0      -3.071  -0.261  -0.800  0.00  0.00    +0.000 A 
ATOM      6  C30 UNK     0      -1.988  -1.429   0.952  0.00  0.00    +0.000 A 
ATOM      7  N6  UNK     0       0.609   0.283  -1.019  0.00  0.00    +0.000 N 
ATOM      8  H41 UNK     0       0.636   1.155  -1.596  0.00  0.00    +0.000 HD
ENDROOT
BRANCH   7   9
ATOM      9  C17 UNK     0       1.861  -0.302  -0.624  0.00  0.00    +0.000 A 
ATOM     10  C15 UNK     0       2.988   0.520  -0.472  0.00  0.00    +0.000 A 
ATOM     11  C14 UNK     0       4.236  -0.026  -0.137  0.00  0.00    +0.000 A 
ATOM     12  C16 UNK     0       4.344  -1.412   0.067  0.00  0.00    +0.000 A 
ATOM     13  C18 UNK     0       3.230  -2.239  -0.100  0.00  0.00    +0.000 A 
ATOM     14  C19 UNK     0       1.996  -1.690  -0.454  0.00  0.00    +0.000 A 
BRANCH  11  15
ATOM     15  N5  UNK     0       5.364   0.845   0.044  0.00  0.00    +0.000 N 
ATOM     16  H36 UNK     0       5.188   1.821   0.373  0.00  0.00    +0.000 HD
ATOM     17  C13 UNK     0       6.710   0.490  -0.305  0.00  0.00    +0.000 C 
ATOM     18  O4  UNK     0       6.939  -0.509  -1.041  0.00  0.00    +0.000 OA
BRANCH  17  19
ATOM     19  C10 UNK     0       7.849   1.364   0.123  0.00  0.00    +0.000 C 
ATOM     20  C12 UNK     0       8.979   0.631   0.834  0.00  0.00    +0.000 C 
ATOM     21  C11 UNK     0       8.016   1.495   1.630  0.00  0.00    +0.000 C 
ENDBRANCH  17  19
ENDBRANCH  11  15
ENDBRANCH   7   9
BRANCH   5  22
ATOM     22  N7  UNK     0      -4.272   0.088  -1.505  0.00  0.00    +0.000 N 
ATOM     23  H43 UNK     0      -4.192   0.376  -2.506  0.00  0.00    +0.000 HD
BRANCH  22  24
ATOM     24  C21 UNK     0      -5.589  -0.011  -0.937  0.00  0.00    +0.000 A 
ATOM     25  C25 UNK     0      -5.825   0.293   0.416  0.00  0.00    +0.000 A 
ATOM     26  C24 UNK     0      -7.125   0.232   0.951  0.00  0.00    +0.000 A 
ATOM     27  C27 UNK     0      -8.197  -0.094   0.103  0.00  0.00    +0.000 A 
ATOM     28  C28 UNK     0      -7.968  -0.385  -1.244  0.00  0.00    +0.000 A 
ATOM     29  C26 UNK     0      -6.673  -0.337  -1.763  0.00  0.00    +0.000 A 
BRANCH  26  30
ATOM     30  C29 UNK     0      -7.363   0.608   2.391  0.00  0.00    +0.000 C 
ATOM     31  F1  UNK     0      -6.354   0.101   3.189  0.00  0.00    +0.000 F 
ATOM     32  F2  UNK     0      -8.570   0.105   2.846  0.00  0.00    +0.000 F 
ATOM     33  F3  UNK     0      -7.378   1.985   2.504  0.00  0.00    +0.000 F 
ENDBRANCH  26  30
ENDBRANCH  22  24
ENDBRANCH   5  22
TORSDOF 6
