REMARK  Name = C:\Users\Maximilian\Desktop\Conformers\converted_pdb\conformers_pdb\VGX_1027_conf_38.pdb
REMARK  6 active torsions:
REMARK  status: ('A' for Active; 'I' for Inactive)
REMARK    1  A    between atoms: C23_5  and  N7_22
REMARK    2  A    between atoms: N6_7  and  C17_9
REMARK    3  A    between atoms: C14_11  and  N5_15
REMARK    4  A    between atoms: C13_17  and  C10_19
REMARK    5  A    between atoms: N7_22  and  C21_24
REMARK    6  A    between atoms: C24_26  and  C29_30
REMARK                            x       y       z     vdW  Elec       q    Type
REMARK                         _______ _______ _______ _____ _____    ______ ____
ROOT
ATOM      1  N8  UNK     0      -0.854   0.178   1.374  0.00  0.00    +0.000 NA
ATOM      2  N9  UNK     0      -3.135   0.196   0.801  0.00  0.00    +0.000 NA
ATOM      3  C20 UNK     0      -0.516   0.700   0.164  0.00  0.00    +0.000 A 
ATOM      4  C22 UNK     0      -1.521   0.966  -0.773  0.00  0.00    +0.000 A 
ATOM      5  C23 UNK     0      -2.851   0.697  -0.432  0.00  0.00    +0.000 A 
ATOM      6  C30 UNK     0      -2.150  -0.069   1.696  0.00  0.00    +0.000 A 
ATOM      7  N6  UNK     0       0.861   0.933  -0.176  0.00  0.00    +0.000 N 
ATOM      8  H41 UNK     0       1.108   1.022  -1.188  0.00  0.00    +0.000 HD
ENDROOT
BRANCH   7   9
ATOM      9  C17 UNK     0       1.934   0.939   0.781  0.00  0.00    +0.000 A 
ATOM     10  C15 UNK     0       3.199   0.464   0.399  0.00  0.00    +0.000 A 
ATOM     11  C14 UNK     0       4.274   0.474   1.307  0.00  0.00    +0.000 A 
ATOM     12  C16 UNK     0       4.082   1.015   2.587  0.00  0.00    +0.000 A 
ATOM     13  C18 UNK     0       2.833   1.511   2.965  0.00  0.00    +0.000 A 
ATOM     14  C19 UNK     0       1.763   1.477   2.068  0.00  0.00    +0.000 A 
BRANCH  11  15
ATOM     15  N5  UNK     0       5.578  -0.001   0.930  0.00  0.00    +0.000 N 
ATOM     16  H36 UNK     0       6.397   0.406   1.433  0.00  0.00    +0.000 HD
ATOM     17  C13 UNK     0       5.791  -1.089   0.010  0.00  0.00    +0.000 C 
ATOM     18  O4  UNK     0       4.860  -1.910  -0.210  0.00  0.00    +0.000 OA
BRANCH  17  19
ATOM     19  C10 UNK     0       7.109  -1.320  -0.691  0.00  0.00    +0.000 C 
ATOM     20  C12 UNK     0       8.349  -1.264   0.188  0.00  0.00    +0.000 C 
ATOM     21  C11 UNK     0       8.066  -0.141  -0.802  0.00  0.00    +0.000 C 
ENDBRANCH  17  19
ENDBRANCH  11  15
ENDBRANCH   7   9
BRANCH   5  22
ATOM     22  N7  UNK     0      -3.905   0.996  -1.362  0.00  0.00    +0.000 N 
ATOM     23  H43 UNK     0      -3.698   1.663  -2.141  0.00  0.00    +0.000 HD
BRANCH  22  24
ATOM     24  C21 UNK     0      -5.256   0.526  -1.224  0.00  0.00    +0.000 A 
ATOM     25  C25 UNK     0      -5.536  -0.764  -0.735  0.00  0.00    +0.000 A 
ATOM     26  C24 UNK     0      -6.863  -1.221  -0.637  0.00  0.00    +0.000 A 
ATOM     27  C27 UNK     0      -7.911  -0.361  -1.006  0.00  0.00    +0.000 A 
ATOM     28  C28 UNK     0      -7.636   0.909  -1.516  0.00  0.00    +0.000 A 
ATOM     29  C26 UNK     0      -6.315   1.346  -1.637  0.00  0.00    +0.000 A 
BRANCH  26  30
ATOM     30  C29 UNK     0      -7.156  -2.583  -0.058  0.00  0.00    +0.000 C 
ATOM     31  F1  UNK     0      -8.357  -3.075  -0.540  0.00  0.00    +0.000 F 
ATOM     32  F2  UNK     0      -7.231  -2.485   1.319  0.00  0.00    +0.000 F 
ATOM     33  F3  UNK     0      -6.157  -3.480  -0.393  0.00  0.00    +0.000 F 
ENDBRANCH  26  30
ENDBRANCH  22  24
ENDBRANCH   5  22
TORSDOF 6
