REMARK  Name = C:\Users\Maximilian\Desktop\Conformers\converted_pdb\conformers_pdb\VGX_1027_conf_56.pdb
REMARK  6 active torsions:
REMARK  status: ('A' for Active; 'I' for Inactive)
REMARK    1  A    between atoms: C23_5  and  N7_22
REMARK    2  A    between atoms: N6_7  and  C17_9
REMARK    3  A    between atoms: C14_11  and  N5_15
REMARK    4  A    between atoms: C13_17  and  C10_19
REMARK    5  A    between atoms: N7_22  and  C21_24
REMARK    6  A    between atoms: C24_26  and  C29_30
REMARK                            x       y       z     vdW  Elec       q    Type
REMARK                         _______ _______ _______ _____ _____    ______ ____
ROOT
ATOM      1  N8  UNK     0      -1.176   0.049  -3.239  0.00  0.00    +0.000 NA
ATOM      2  N9  UNK     0      -3.219   0.104  -2.074  0.00  0.00    +0.000 NA
ATOM      3  C20 UNK     0      -0.476   0.052  -2.074  0.00  0.00    +0.000 A 
ATOM      4  C22 UNK     0      -1.171   0.111  -0.857  0.00  0.00    +0.000 A 
ATOM      5  C23 UNK     0      -2.570   0.116  -0.878  0.00  0.00    +0.000 A 
ATOM      6  C30 UNK     0      -2.533   0.069  -3.245  0.00  0.00    +0.000 A 
ATOM      7  N6  UNK     0       0.960   0.067  -2.121  0.00  0.00    +0.000 N 
ATOM      8  H41 UNK     0       1.410   0.493  -2.962  0.00  0.00    +0.000 HD
ENDROOT
BRANCH   7   9
ATOM      9  C17 UNK     0       1.816  -0.470  -1.097  0.00  0.00    +0.000 A 
ATOM     10  C15 UNK     0       3.073   0.112  -0.876  0.00  0.00    +0.000 A 
ATOM     11  C14 UNK     0       3.948  -0.412   0.089  0.00  0.00    +0.000 A 
ATOM     12  C16 UNK     0       3.543  -1.523   0.850  0.00  0.00    +0.000 A 
ATOM     13  C18 UNK     0       2.302  -2.121   0.617  0.00  0.00    +0.000 A 
ATOM     14  C19 UNK     0       1.446  -1.607  -0.359  0.00  0.00    +0.000 A 
BRANCH  11  15
ATOM     15  N5  UNK     0       5.214   0.232   0.318  0.00  0.00    +0.000 N 
ATOM     16  H36 UNK     0       5.287   1.242   0.065  0.00  0.00    +0.000 HD
ATOM     17  C13 UNK     0       6.399  -0.473   0.738  0.00  0.00    +0.000 C 
ATOM     18  O4  UNK     0       6.480  -1.717   0.558  0.00  0.00    +0.000 OA
BRANCH  17  19
ATOM     19  C10 UNK     0       7.584   0.225   1.362  0.00  0.00    +0.000 C 
ATOM     20  C12 UNK     0       7.352   1.593   1.987  0.00  0.00    +0.000 C 
ATOM     21  C11 UNK     0       8.071   1.477   0.649  0.00  0.00    +0.000 C 
ENDBRANCH  17  19
ENDBRANCH  11  15
ENDBRANCH   7   9
BRANCH   5  22
ATOM     22  N7  UNK     0      -3.305   0.195   0.354  0.00  0.00    +0.000 N 
ATOM     23  H43 UNK     0      -2.800   0.529   1.207  0.00  0.00    +0.000 HD
BRANCH  22  24
ATOM     24  C21 UNK     0      -4.717  -0.053   0.465  0.00  0.00    +0.000 A 
ATOM     25  C25 UNK     0      -5.472   0.671   1.400  0.00  0.00    +0.000 A 
ATOM     26  C24 UNK     0      -6.853   0.444   1.541  0.00  0.00    +0.000 A 
ATOM     27  C27 UNK     0      -7.461  -0.565   0.774  0.00  0.00    +0.000 A 
ATOM     28  C28 UNK     0      -6.709  -1.305  -0.141  0.00  0.00    +0.000 A 
ATOM     29  C26 UNK     0      -5.344  -1.055  -0.296  0.00  0.00    +0.000 A 
BRANCH  26  30
ATOM     30  C29 UNK     0      -7.649   1.203   2.573  0.00  0.00    +0.000 C 
ATOM     31  F1  UNK     0      -8.974   1.311   2.188  0.00  0.00    +0.000 F 
ATOM     32  F2  UNK     0      -7.142   2.480   2.738  0.00  0.00    +0.000 F 
ATOM     33  F3  UNK     0      -7.584   0.532   3.781  0.00  0.00    +0.000 F 
ENDBRANCH  26  30
ENDBRANCH  22  24
ENDBRANCH   5  22
TORSDOF 6
