REMARK  Name = C:\Users\Maximilian\Desktop\Conformers\converted_pdb\conformers_pdb\VGX_1027_conf_25.pdb
REMARK  6 active torsions:
REMARK  status: ('A' for Active; 'I' for Inactive)
REMARK    1  A    between atoms: C23_5  and  N7_22
REMARK    2  A    between atoms: N6_7  and  C17_9
REMARK    3  A    between atoms: C14_11  and  N5_15
REMARK    4  A    between atoms: C13_17  and  C10_19
REMARK    5  A    between atoms: N7_22  and  C21_24
REMARK    6  A    between atoms: C24_26  and  C29_30
REMARK                            x       y       z     vdW  Elec       q    Type
REMARK                         _______ _______ _______ _____ _____    ______ ____
ROOT
ATOM      1  N8  UNK     0       0.779   0.803   0.721  0.00  0.00    +0.000 NA
ATOM      2  N9  UNK     0       3.006   0.717  -0.031  0.00  0.00    +0.000 NA
ATOM      3  C20 UNK     0       0.467  -0.320   0.018  0.00  0.00    +0.000 A 
ATOM      4  C22 UNK     0       1.456  -0.940  -0.753  0.00  0.00    +0.000 A 
ATOM      5  C23 UNK     0       2.749  -0.406  -0.754  0.00  0.00    +0.000 A 
ATOM      6  C30 UNK     0       2.035   1.316   0.707  0.00  0.00    +0.000 A 
ATOM      7  N6  UNK     0      -0.876  -0.830   0.010  0.00  0.00    +0.000 N 
ATOM      8  H41 UNK     0      -1.141  -1.504  -0.744  0.00  0.00    +0.000 HD
ENDROOT
BRANCH   7   9
ATOM      9  C17 UNK     0      -1.919  -0.363   0.883  0.00  0.00    +0.000 A 
ATOM     10  C15 UNK     0      -3.231  -0.259   0.395  0.00  0.00    +0.000 A 
ATOM     11  C14 UNK     0      -4.275   0.178   1.231  0.00  0.00    +0.000 A 
ATOM     12  C16 UNK     0      -3.987   0.526   2.559  0.00  0.00    +0.000 A 
ATOM     13  C18 UNK     0      -2.690   0.398   3.058  0.00  0.00    +0.000 A 
ATOM     14  C19 UNK     0      -1.660  -0.055   2.230  0.00  0.00    +0.000 A 
BRANCH  11  15
ATOM     15  N5  UNK     0      -5.616   0.335   0.734  0.00  0.00    +0.000 N 
ATOM     16  H36 UNK     0      -6.219   1.042   1.208  0.00  0.00    +0.000 HD
ATOM     17  C13 UNK     0      -6.195  -0.518  -0.273  0.00  0.00    +0.000 C 
ATOM     18  O4  UNK     0      -5.689  -1.650  -0.500  0.00  0.00    +0.000 OA
BRANCH  17  19
ATOM     19  C10 UNK     0      -7.425  -0.130  -1.060  0.00  0.00    +0.000 C 
ATOM     20  C12 UNK     0      -7.777   1.349  -1.143  0.00  0.00    +0.000 C 
ATOM     21  C11 UNK     0      -8.590   0.418  -0.250  0.00  0.00    +0.000 C 
ENDBRANCH  17  19
ENDBRANCH  11  15
ENDBRANCH   7   9
BRANCH   5  22
ATOM     22  N7  UNK     0       3.774  -1.005  -1.563  0.00  0.00    +0.000 N 
ATOM     23  H43 UNK     0       3.478  -1.632  -2.347  0.00  0.00    +0.000 HD
BRANCH  22  24
ATOM     24  C21 UNK     0       5.173  -0.694  -1.440  0.00  0.00    +0.000 A 
ATOM     25  C25 UNK     0       5.768  -0.486  -0.183  0.00  0.00    +0.000 A 
ATOM     26  C24 UNK     0       7.146  -0.224  -0.078  0.00  0.00    +0.000 A 
ATOM     27  C27 UNK     0       7.917  -0.140  -1.251  0.00  0.00    +0.000 A 
ATOM     28  C28 UNK     0       7.333  -0.369  -2.498  0.00  0.00    +0.000 A 
ATOM     29  C26 UNK     0       5.971  -0.657  -2.593  0.00  0.00    +0.000 A 
BRANCH  26  30
ATOM     30  C29 UNK     0       7.766   0.054   1.268  0.00  0.00    +0.000 C 
ATOM     31  F1  UNK     0       9.109  -0.284   1.269  0.00  0.00    +0.000 F 
ATOM     32  F2  UNK     0       7.134  -0.679   2.258  0.00  0.00    +0.000 F 
ATOM     33  F3  UNK     0       7.640   1.401   1.555  0.00  0.00    +0.000 F 
ENDBRANCH  26  30
ENDBRANCH  22  24
ENDBRANCH   5  22
TORSDOF 6
