REMARK  Name = C:\Users\Maximilian\Desktop\Conformers\converted_pdb\conformers_pdb\VGX_1027_conf_45.pdb
REMARK  6 active torsions:
REMARK  status: ('A' for Active; 'I' for Inactive)
REMARK    1  A    between atoms: C23_5  and  N7_22
REMARK    2  A    between atoms: N6_7  and  C17_9
REMARK    3  A    between atoms: C14_11  and  N5_15
REMARK    4  A    between atoms: C13_17  and  C10_19
REMARK    5  A    between atoms: N7_22  and  C21_24
REMARK    6  A    between atoms: C24_26  and  C29_30
REMARK                            x       y       z     vdW  Elec       q    Type
REMARK                         _______ _______ _______ _____ _____    ______ ____
ROOT
ATOM      1  N8  UNK     0      -1.421  -2.615   1.944  0.00  0.00    +0.000 NA
ATOM      2  N9  UNK     0      -3.272  -1.223   1.535  0.00  0.00    +0.000 NA
ATOM      3  C20 UNK     0      -0.605  -1.790   1.235  0.00  0.00    +0.000 A 
ATOM      4  C22 UNK     0      -1.138  -0.624   0.661  0.00  0.00    +0.000 A 
ATOM      5  C23 UNK     0      -2.503  -0.360   0.815  0.00  0.00    +0.000 A 
ATOM      6  C30 UNK     0      -2.742  -2.343   2.089  0.00  0.00    +0.000 A 
ATOM      7  N6  UNK     0       0.797  -2.092   1.157  0.00  0.00    +0.000 N 
ATOM      8  H41 UNK     0       1.212  -2.676   1.919  0.00  0.00    +0.000 HD
ENDROOT
BRANCH   7   9
ATOM      9  C17 UNK     0       1.674  -1.596   0.134  0.00  0.00    +0.000 A 
ATOM     10  C15 UNK     0       2.966  -1.171   0.474  0.00  0.00    +0.000 A 
ATOM     11  C14 UNK     0       3.828  -0.653  -0.504  0.00  0.00    +0.000 A 
ATOM     12  C16 UNK     0       3.412  -0.634  -1.846  0.00  0.00    +0.000 A 
ATOM     13  C18 UNK     0       2.136  -1.086  -2.194  0.00  0.00    +0.000 A 
ATOM     14  C19 UNK     0       1.268  -1.561  -1.209  0.00  0.00    +0.000 A 
BRANCH  11  15
ATOM     15  N5  UNK     0       5.127  -0.174  -0.122  0.00  0.00    +0.000 N 
ATOM     16  H36 UNK     0       5.600  -0.623   0.695  0.00  0.00    +0.000 HD
ATOM     17  C13 UNK     0       5.731   1.001  -0.682  0.00  0.00    +0.000 C 
ATOM     18  O4  UNK     0       5.070   1.765  -1.435  0.00  0.00    +0.000 OA
BRANCH  17  19
ATOM     19  C10 UNK     0       7.127   1.377  -0.292  0.00  0.00    +0.000 C 
ATOM     20  C12 UNK     0       8.067   1.654  -1.455  0.00  0.00    +0.000 C 
ATOM     21  C11 UNK     0       8.186   0.354  -0.678  0.00  0.00    +0.000 C 
ENDBRANCH  17  19
ENDBRANCH  11  15
ENDBRANCH   7   9
BRANCH   5  22
ATOM     22  N7  UNK     0      -3.064   0.846   0.268  0.00  0.00    +0.000 N 
ATOM     23  H43 UNK     0      -2.408   1.587  -0.070  0.00  0.00    +0.000 HD
BRANCH  22  24
ATOM     24  C21 UNK     0      -4.464   1.166   0.317  0.00  0.00    +0.000 A 
ATOM     25  C25 UNK     0      -5.444   0.200   0.032  0.00  0.00    +0.000 A 
ATOM     26  C24 UNK     0      -6.811   0.526   0.091  0.00  0.00    +0.000 A 
ATOM     27  C27 UNK     0      -7.185   1.848   0.386  0.00  0.00    +0.000 A 
ATOM     28  C28 UNK     0      -6.211   2.816   0.643  0.00  0.00    +0.000 A 
ATOM     29  C26 UNK     0      -4.858   2.480   0.605  0.00  0.00    +0.000 A 
BRANCH  26  30
ATOM     30  C29 UNK     0      -7.852  -0.513  -0.247  0.00  0.00    +0.000 C 
ATOM     31  F1  UNK     0      -9.071  -0.199   0.329  0.00  0.00    +0.000 F 
ATOM     32  F2  UNK     0      -7.462  -1.756   0.222  0.00  0.00    +0.000 F 
ATOM     33  F3  UNK     0      -8.004  -0.576  -1.620  0.00  0.00    +0.000 F 
ENDBRANCH  26  30
ENDBRANCH  22  24
ENDBRANCH   5  22
TORSDOF 6
