REMARK  Name = C:\Users\Maximilian\Desktop\Conformers\converted_pdb\conformers_pdb\VGX_1027_conf_17.pdb
REMARK  6 active torsions:
REMARK  status: ('A' for Active; 'I' for Inactive)
REMARK    1  A    between atoms: C23_5  and  N7_22
REMARK    2  A    between atoms: N6_7  and  C17_9
REMARK    3  A    between atoms: C14_11  and  N5_15
REMARK    4  A    between atoms: C13_17  and  C10_19
REMARK    5  A    between atoms: N7_22  and  C21_24
REMARK    6  A    between atoms: C24_26  and  C29_30
REMARK                            x       y       z     vdW  Elec       q    Type
REMARK                         _______ _______ _______ _____ _____    ______ ____
ROOT
ATOM      1  N8  UNK     0       0.761  -3.096   1.449  0.00  0.00    +0.000 NA
ATOM      2  N9  UNK     0       2.905  -2.332   0.854  0.00  0.00    +0.000 NA
ATOM      3  C20 UNK     0       0.202  -1.914   1.073  0.00  0.00    +0.000 A 
ATOM      4  C22 UNK     0       1.021  -0.909   0.538  0.00  0.00    +0.000 A 
ATOM      5  C23 UNK     0       2.396  -1.142   0.433  0.00  0.00    +0.000 A 
ATOM      6  C30 UNK     0       2.099  -3.305   1.350  0.00  0.00    +0.000 A 
ATOM      7  N6  UNK     0      -1.221  -1.752   1.172  0.00  0.00    +0.000 N 
ATOM      8  H41 UNK     0      -1.810  -2.613   1.105  0.00  0.00    +0.000 HD
ENDROOT
BRANCH   7   9
ATOM      9  C17 UNK     0      -1.888  -0.492   1.362  0.00  0.00    +0.000 A 
ATOM     10  C15 UNK     0      -3.167  -0.301   0.818  0.00  0.00    +0.000 A 
ATOM     11  C14 UNK     0      -3.858   0.910   1.015  0.00  0.00    +0.000 A 
ATOM     12  C16 UNK     0      -3.243   1.935   1.748  0.00  0.00    +0.000 A 
ATOM     13  C18 UNK     0      -1.981   1.742   2.313  0.00  0.00    +0.000 A 
ATOM     14  C19 UNK     0      -1.309   0.531   2.133  0.00  0.00    +0.000 A 
BRANCH  11  15
ATOM     15  N5  UNK     0      -5.153   1.136   0.433  0.00  0.00    +0.000 N 
ATOM     16  H36 UNK     0      -5.420   2.126   0.236  0.00  0.00    +0.000 HD
ATOM     17  C13 UNK     0      -6.133   0.096   0.245  0.00  0.00    +0.000 C 
ATOM     18  O4  UNK     0      -6.051  -0.966   0.919  0.00  0.00    +0.000 OA
BRANCH  17  19
ATOM     19  C10 UNK     0      -7.294   0.232  -0.711  0.00  0.00    +0.000 C 
ATOM     20  C12 UNK     0      -7.176   1.261  -1.826  0.00  0.00    +0.000 C 
ATOM     21  C11 UNK     0      -8.076   1.534  -0.628  0.00  0.00    +0.000 C 
ENDBRANCH  17  19
ENDBRANCH  11  15
ENDBRANCH   7   9
BRANCH   5  22
ATOM     22  N7  UNK     0       3.262  -0.113  -0.074  0.00  0.00    +0.000 N 
ATOM     23  H43 UNK     0       2.903   0.869  -0.083  0.00  0.00    +0.000 HD
BRANCH  22  24
ATOM     24  C21 UNK     0       4.628  -0.331  -0.464  0.00  0.00    +0.000 A 
ATOM     25  C25 UNK     0       5.575   0.683  -0.251  0.00  0.00    +0.000 A 
ATOM     26  C24 UNK     0       6.913   0.515  -0.652  0.00  0.00    +0.000 A 
ATOM     27  C27 UNK     0       7.300  -0.698  -1.246  0.00  0.00    +0.000 A 
ATOM     28  C28 UNK     0       6.357  -1.700  -1.484  0.00  0.00    +0.000 A 
ATOM     29  C26 UNK     0       5.025  -1.516  -1.106  0.00  0.00    +0.000 A 
BRANCH  26  30
ATOM     30  C29 UNK     0       7.935   1.585  -0.360  0.00  0.00    +0.000 C 
ATOM     31  F1  UNK     0       8.966   1.544  -1.284  0.00  0.00    +0.000 F 
ATOM     32  F2  UNK     0       8.455   1.384   0.904  0.00  0.00    +0.000 F 
ATOM     33  F3  UNK     0       7.356   2.841  -0.415  0.00  0.00    +0.000 F 
ENDBRANCH  26  30
ENDBRANCH  22  24
ENDBRANCH   5  22
TORSDOF 6
