REMARK  Name = C:\Users\Maximilian\Desktop\Conformers\converted_pdb\conformers_pdb\VGX_1027_conf_26.pdb
REMARK  6 active torsions:
REMARK  status: ('A' for Active; 'I' for Inactive)
REMARK    1  A    between atoms: C23_5  and  N7_22
REMARK    2  A    between atoms: N6_7  and  C17_9
REMARK    3  A    between atoms: C14_11  and  N5_15
REMARK    4  A    between atoms: C13_17  and  C10_19
REMARK    5  A    between atoms: N7_22  and  C21_24
REMARK    6  A    between atoms: C24_26  and  C29_30
REMARK                            x       y       z     vdW  Elec       q    Type
REMARK                         _______ _______ _______ _____ _____    ______ ____
ROOT
ATOM      1  N8  UNK     0      -0.219   2.619   0.860  0.00  0.00    +0.000 NA
ATOM      2  N9  UNK     0      -2.434   3.306   1.248  0.00  0.00    +0.000 NA
ATOM      3  C20 UNK     0      -0.648   1.507   0.202  0.00  0.00    +0.000 A 
ATOM      4  C22 UNK     0      -2.021   1.274   0.074  0.00  0.00    +0.000 A 
ATOM      5  C23 UNK     0      -2.920   2.198   0.628  0.00  0.00    +0.000 A 
ATOM      6  C30 UNK     0      -1.099   3.516   1.372  0.00  0.00    +0.000 A 
ATOM      7  N6  UNK     0       0.293   0.555  -0.319  0.00  0.00    +0.000 N 
ATOM      8  H41 UNK     0      -0.047  -0.414  -0.517  0.00  0.00    +0.000 HD
ENDROOT
BRANCH   7   9
ATOM      9  C17 UNK     0       1.698   0.818  -0.473  0.00  0.00    +0.000 A 
ATOM     10  C15 UNK     0       2.620  -0.219  -0.265  0.00  0.00    +0.000 A 
ATOM     11  C14 UNK     0       3.998   0.004  -0.415  0.00  0.00    +0.000 A 
ATOM     12  C16 UNK     0       4.446   1.270  -0.832  0.00  0.00    +0.000 A 
ATOM     13  C18 UNK     0       3.531   2.299  -1.065  0.00  0.00    +0.000 A 
ATOM     14  C19 UNK     0       2.164   2.077  -0.890  0.00  0.00    +0.000 A 
BRANCH  11  15
ATOM     15  N5  UNK     0       4.917  -1.082  -0.198  0.00  0.00    +0.000 N 
ATOM     16  H36 UNK     0       4.546  -2.049  -0.319  0.00  0.00    +0.000 HD
ATOM     17  C13 UNK     0       6.253  -0.902   0.310  0.00  0.00    +0.000 C 
ATOM     18  O4  UNK     0       6.551   0.161   0.919  0.00  0.00    +0.000 OA
BRANCH  17  19
ATOM     19  C10 UNK     0       7.325  -1.958   0.180  0.00  0.00    +0.000 C 
ATOM     20  C12 UNK     0       7.152  -3.014  -0.902  0.00  0.00    +0.000 C 
ATOM     21  C11 UNK     0       6.915  -3.373   0.560  0.00  0.00    +0.000 C 
ENDBRANCH  17  19
ENDBRANCH  11  15
ENDBRANCH   7   9
BRANCH   5  22
ATOM     22  N7  UNK     0      -4.341   2.036   0.498  0.00  0.00    +0.000 N 
ATOM     23  H43 UNK     0      -4.924   2.904   0.484  0.00  0.00    +0.000 HD
BRANCH  22  24
ATOM     24  C21 UNK     0      -5.016   0.770   0.398  0.00  0.00    +0.000 A 
ATOM     25  C25 UNK     0      -6.207   0.681  -0.339  0.00  0.00    +0.000 A 
ATOM     26  C24 UNK     0      -6.913  -0.532  -0.421  0.00  0.00    +0.000 A 
ATOM     27  C27 UNK     0      -6.394  -1.669   0.222  0.00  0.00    +0.000 A 
ATOM     28  C28 UNK     0      -5.222  -1.580   0.977  0.00  0.00    +0.000 A 
ATOM     29  C26 UNK     0      -4.541  -0.365   1.076  0.00  0.00    +0.000 A 
BRANCH  26  30
ATOM     30  C29 UNK     0      -8.156  -0.633  -1.269  0.00  0.00    +0.000 C 
ATOM     31  F1  UNK     0      -8.854   0.562  -1.253  0.00  0.00    +0.000 F 
ATOM     32  F2  UNK     0      -8.994  -1.629  -0.795  0.00  0.00    +0.000 F 
ATOM     33  F3  UNK     0      -7.797  -0.928  -2.570  0.00  0.00    +0.000 F 
ENDBRANCH  26  30
ENDBRANCH  22  24
ENDBRANCH   5  22
TORSDOF 6
