REMARK  Name = C:\Users\Maximilian\Desktop\Conformers\converted_pdb\conformers_pdb\VGX_1027_conf_40.pdb
REMARK  6 active torsions:
REMARK  status: ('A' for Active; 'I' for Inactive)
REMARK    1  A    between atoms: C23_5  and  N7_22
REMARK    2  A    between atoms: N6_7  and  C17_9
REMARK    3  A    between atoms: C14_11  and  N5_15
REMARK    4  A    between atoms: C13_17  and  C10_19
REMARK    5  A    between atoms: N7_22  and  C21_24
REMARK    6  A    between atoms: C24_26  and  C29_30
REMARK                            x       y       z     vdW  Elec       q    Type
REMARK                         _______ _______ _______ _____ _____    ______ ____
ROOT
ATOM      1  N8  UNK     0       1.140   2.006  -2.576  0.00  0.00    +0.000 NA
ATOM      2  N9  UNK     0       3.181   1.336  -1.617  0.00  0.00    +0.000 NA
ATOM      3  C20 UNK     0       0.438   1.293  -1.655  0.00  0.00    +0.000 A 
ATOM      4  C22 UNK     0       1.132   0.546  -0.693  0.00  0.00    +0.000 A 
ATOM      5  C23 UNK     0       2.530   0.599  -0.676  0.00  0.00    +0.000 A 
ATOM      6  C30 UNK     0       2.497   2.034  -2.559  0.00  0.00    +0.000 A 
ATOM      7  N6  UNK     0      -0.996   1.271  -1.732  0.00  0.00    +0.000 N 
ATOM      8  H41 UNK     0      -1.429   1.391  -2.676  0.00  0.00    +0.000 HD
ENDROOT
BRANCH   7   9
ATOM      9  C17 UNK     0      -1.870   1.095  -0.604  0.00  0.00    +0.000 A 
ATOM     10  C15 UNK     0      -3.113   0.469  -0.786  0.00  0.00    +0.000 A 
ATOM     11  C14 UNK     0      -4.001   0.308   0.294  0.00  0.00    +0.000 A 
ATOM     12  C16 UNK     0      -3.620   0.764   1.565  0.00  0.00    +0.000 A 
ATOM     13  C18 UNK     0      -2.396   1.411   1.747  0.00  0.00    +0.000 A 
ATOM     14  C19 UNK     0      -1.528   1.588   0.667  0.00  0.00    +0.000 A 
BRANCH  11  15
ATOM     15  N5  UNK     0      -5.262  -0.365   0.134  0.00  0.00    +0.000 N 
ATOM     16  H36 UNK     0      -5.662  -0.831   0.978  0.00  0.00    +0.000 HD
ATOM     17  C13 UNK     0      -6.049  -0.302  -1.071  0.00  0.00    +0.000 C 
ATOM     18  O4  UNK     0      -5.853   0.630  -1.896  0.00  0.00    +0.000 OA
BRANCH  17  19
ATOM     19  C10 UNK     0      -7.142  -1.296  -1.384  0.00  0.00    +0.000 C 
ATOM     20  C12 UNK     0      -8.121  -1.584  -0.256  0.00  0.00    +0.000 C 
ATOM     21  C11 UNK     0      -7.104  -2.640  -0.670  0.00  0.00    +0.000 C 
ENDBRANCH  17  19
ENDBRANCH  11  15
ENDBRANCH   7   9
BRANCH   5  22
ATOM     22  N7  UNK     0       3.265  -0.167   0.292  0.00  0.00    +0.000 N 
ATOM     23  H43 UNK     0       2.781  -0.976   0.746  0.00  0.00    +0.000 HD
BRANCH  22  24
ATOM     24  C21 UNK     0       4.649   0.054   0.614  0.00  0.00    +0.000 A 
ATOM     25  C25 UNK     0       5.446  -1.033   1.005  0.00  0.00    +0.000 A 
ATOM     26  C24 UNK     0       6.792  -0.845   1.369  0.00  0.00    +0.000 A 
ATOM     27  C27 UNK     0       7.342   0.446   1.305  0.00  0.00    +0.000 A 
ATOM     28  C28 UNK     0       6.547   1.535   0.942  0.00  0.00    +0.000 A 
ATOM     29  C26 UNK     0       5.204   1.345   0.609  0.00  0.00    +0.000 A 
BRANCH  26  30
ATOM     30  C29 UNK     0       7.657  -2.025   1.733  0.00  0.00    +0.000 C 
ATOM     31  F1  UNK     0       6.900  -3.021   2.329  0.00  0.00    +0.000 F 
ATOM     32  F2  UNK     0       8.649  -1.647   2.621  0.00  0.00    +0.000 F 
ATOM     33  F3  UNK     0       8.245  -2.530   0.589  0.00  0.00    +0.000 F 
ENDBRANCH  26  30
ENDBRANCH  22  24
ENDBRANCH   5  22
TORSDOF 6
