REMARK  Name = C:\Users\Maximilian\Desktop\Conformers\converted_pdb\conformers_pdb\VGX_1027_conf_9.pdb
REMARK  6 active torsions:
REMARK  status: ('A' for Active; 'I' for Inactive)
REMARK    1  A    between atoms: C23_5  and  N7_22
REMARK    2  A    between atoms: N6_7  and  C17_9
REMARK    3  A    between atoms: C14_11  and  N5_15
REMARK    4  A    between atoms: C13_17  and  C10_19
REMARK    5  A    between atoms: N7_22  and  C21_24
REMARK    6  A    between atoms: C24_26  and  C29_30
REMARK                            x       y       z     vdW  Elec       q    Type
REMARK                         _______ _______ _______ _____ _____    ______ ____
ROOT
ATOM      1  N8  UNK     0      -0.834   0.854  -0.737  0.00  0.00    +0.000 NA
ATOM      2  N9  UNK     0      -3.133   0.359  -0.790  0.00  0.00    +0.000 NA
ATOM      3  C20 UNK     0      -0.719   0.324   0.511  0.00  0.00    +0.000 A 
ATOM      4  C22 UNK     0      -1.848  -0.226   1.129  0.00  0.00    +0.000 A 
ATOM      5  C23 UNK     0      -3.070  -0.204   0.448  0.00  0.00    +0.000 A 
ATOM      6  C30 UNK     0      -2.027   0.879  -1.383  0.00  0.00    +0.000 A 
ATOM      7  N6  UNK     0       0.555   0.278   1.175  0.00  0.00    +0.000 N 
ATOM      8  H41 UNK     0       0.674  -0.400   1.961  0.00  0.00    +0.000 HD
ENDROOT
BRANCH   7   9
ATOM      9  C17 UNK     0       1.710   1.026   0.754  0.00  0.00    +0.000 A 
ATOM     10  C15 UNK     0       2.987   0.468   0.917  0.00  0.00    +0.000 A 
ATOM     11  C14 UNK     0       4.137   1.186   0.553  0.00  0.00    +0.000 A 
ATOM     12  C16 UNK     0       3.996   2.471   0.000  0.00  0.00    +0.000 A 
ATOM     13  C18 UNK     0       2.729   3.040  -0.144  0.00  0.00    +0.000 A 
ATOM     14  C19 UNK     0       1.591   2.329   0.241  0.00  0.00    +0.000 A 
BRANCH  11  15
ATOM     15  N5  UNK     0       5.430   0.572   0.701  0.00  0.00    +0.000 N 
ATOM     16  H36 UNK     0       5.463  -0.471   0.698  0.00  0.00    +0.000 HD
ATOM     17  C13 UNK     0       6.632   1.310   0.993  0.00  0.00    +0.000 C 
ATOM     18  O4  UNK     0       6.550   2.467   1.486  0.00  0.00    +0.000 OA
BRANCH  17  19
ATOM     19  C10 UNK     0       8.014   0.743   0.766  0.00  0.00    +0.000 C 
ATOM     20  C12 UNK     0       8.153  -0.419  -0.208  0.00  0.00    +0.000 C 
ATOM     21  C11 UNK     0       8.248  -0.665   1.292  0.00  0.00    +0.000 C 
ENDBRANCH  17  19
ENDBRANCH  11  15
ENDBRANCH   7   9
BRANCH   5  22
ATOM     22  N7  UNK     0      -4.251  -0.729   1.076  0.00  0.00    +0.000 N 
ATOM     23  H43 UNK     0      -4.240  -0.854   2.114  0.00  0.00    +0.000 HD
BRANCH  22  24
ATOM     24  C21 UNK     0      -5.484  -0.986   0.382  0.00  0.00    +0.000 A 
ATOM     25  C25 UNK     0      -5.492  -1.495  -0.930  0.00  0.00    +0.000 A 
ATOM     26  C24 UNK     0      -6.706  -1.756  -1.590  0.00  0.00    +0.000 A 
ATOM     27  C27 UNK     0      -7.915  -1.557  -0.901  0.00  0.00    +0.000 A 
ATOM     28  C28 UNK     0      -7.910  -1.073   0.409  0.00  0.00    +0.000 A 
ATOM     29  C26 UNK     0      -6.701  -0.792   1.049  0.00  0.00    +0.000 A 
BRANCH  26  30
ATOM     30  C29 UNK     0      -6.702  -2.343  -2.979  0.00  0.00    +0.000 C 
ATOM     31  F1  UNK     0      -5.648  -1.832  -3.716  0.00  0.00    +0.000 F 
ATOM     32  F2  UNK     0      -7.879  -2.048  -3.645  0.00  0.00    +0.000 F 
ATOM     33  F3  UNK     0      -6.567  -3.717  -2.891  0.00  0.00    +0.000 F 
ENDBRANCH  26  30
ENDBRANCH  22  24
ENDBRANCH   5  22
TORSDOF 6
