REMARK  Name = C:\Users\Maximilian\Desktop\Conformers\converted_pdb\conformers_pdb\VGX_1027_conf_43.pdb
REMARK  6 active torsions:
REMARK  status: ('A' for Active; 'I' for Inactive)
REMARK    1  A    between atoms: C23_5  and  N7_22
REMARK    2  A    between atoms: N6_7  and  C17_9
REMARK    3  A    between atoms: C14_11  and  N5_15
REMARK    4  A    between atoms: C13_17  and  C10_19
REMARK    5  A    between atoms: N7_22  and  C21_24
REMARK    6  A    between atoms: C24_26  and  C29_30
REMARK                            x       y       z     vdW  Elec       q    Type
REMARK                         _______ _______ _______ _____ _____    ______ ____
ROOT
ATOM      1  N8  UNK     0      -0.781   0.624   0.899  0.00  0.00    +0.000 NA
ATOM      2  N9  UNK     0      -3.117   0.391   0.753  0.00  0.00    +0.000 NA
ATOM      3  C20 UNK     0      -0.595  -0.597   0.327  0.00  0.00    +0.000 A 
ATOM      4  C22 UNK     0      -1.709  -1.348  -0.063  0.00  0.00    +0.000 A 
ATOM      5  C23 UNK     0      -2.988  -0.826   0.158  0.00  0.00    +0.000 A 
ATOM      6  C30 UNK     0      -2.028   1.115   1.117  0.00  0.00    +0.000 A 
ATOM      7  N6  UNK     0       0.730  -1.093   0.075  0.00  0.00    +0.000 N 
ATOM      8  H41 UNK     0       0.844  -1.848  -0.640  0.00  0.00    +0.000 HD
ENDROOT
BRANCH   7   9
ATOM      9  C17 UNK     0       1.919  -0.538   0.662  0.00  0.00    +0.000 A 
ATOM     10  C15 UNK     0       3.107  -0.512  -0.082  0.00  0.00    +0.000 A 
ATOM     11  C14 UNK     0       4.294  -0.008   0.473  0.00  0.00    +0.000 A 
ATOM     12  C16 UNK     0       4.276   0.490   1.788  0.00  0.00    +0.000 A 
ATOM     13  C18 UNK     0       3.102   0.445   2.543  0.00  0.00    +0.000 A 
ATOM     14  C19 UNK     0       1.930  -0.076   1.989  0.00  0.00    +0.000 A 
BRANCH  11  15
ATOM     15  N5  UNK     0       5.485   0.043  -0.331  0.00  0.00    +0.000 N 
ATOM     16  H36 UNK     0       5.359   0.076  -1.367  0.00  0.00    +0.000 HD
ATOM     17  C13 UNK     0       6.814  -0.086   0.209  0.00  0.00    +0.000 C 
ATOM     18  O4  UNK     0       6.980  -0.631   1.333  0.00  0.00    +0.000 OA
BRANCH  17  19
ATOM     19  C10 UNK     0       8.045   0.377  -0.533  0.00  0.00    +0.000 C 
ATOM     20  C12 UNK     0       7.858   1.407  -1.638  0.00  0.00    +0.000 C 
ATOM     21  C11 UNK     0       8.143  -0.048  -1.990  0.00  0.00    +0.000 C 
ENDBRANCH  17  19
ENDBRANCH  11  15
ENDBRANCH   7   9
BRANCH   5  22
ATOM     22  N7  UNK     0      -4.149  -1.594  -0.196  0.00  0.00    +0.000 N 
ATOM     23  H43 UNK     0      -4.032  -2.624  -0.339  0.00  0.00    +0.000 HD
BRANCH  22  24
ATOM     24  C21 UNK     0      -5.480  -1.056  -0.246  0.00  0.00    +0.000 A 
ATOM     25  C25 UNK     0      -5.727   0.239  -0.736  0.00  0.00    +0.000 A 
ATOM     26  C24 UNK     0      -7.038   0.743  -0.806  0.00  0.00    +0.000 A 
ATOM     27  C27 UNK     0      -8.103  -0.058  -0.356  0.00  0.00    +0.000 A 
ATOM     28  C28 UNK     0      -7.864  -1.353   0.108  0.00  0.00    +0.000 A 
ATOM     29  C26 UNK     0      -6.561  -1.855   0.151  0.00  0.00    +0.000 A 
BRANCH  26  30
ATOM     30  C29 UNK     0      -7.276   2.153  -1.287  0.00  0.00    +0.000 C 
ATOM     31  F1  UNK     0      -8.596   2.339  -1.662  0.00  0.00    +0.000 F 
ATOM     32  F2  UNK     0      -6.473   2.426  -2.380  0.00  0.00    +0.000 F 
ATOM     33  F3  UNK     0      -6.970   3.037  -0.269  0.00  0.00    +0.000 F 
ENDBRANCH  26  30
ENDBRANCH  22  24
ENDBRANCH   5  22
TORSDOF 6
