REMARK  Name = C:\Users\Maximilian\Desktop\Conformers\converted_pdb\conformers_pdb\VGX_1027_conf_68.pdb
REMARK  6 active torsions:
REMARK  status: ('A' for Active; 'I' for Inactive)
REMARK    1  A    between atoms: C23_5  and  N7_22
REMARK    2  A    between atoms: N6_7  and  C17_9
REMARK    3  A    between atoms: C14_11  and  N5_15
REMARK    4  A    between atoms: C13_17  and  C10_19
REMARK    5  A    between atoms: N7_22  and  C21_24
REMARK    6  A    between atoms: C24_26  and  C29_30
REMARK                            x       y       z     vdW  Elec       q    Type
REMARK                         _______ _______ _______ _____ _____    ______ ____
ROOT
ATOM      1  N8  UNK     0       0.915  -1.347  -3.113  0.00  0.00    +0.000 NA
ATOM      2  N9  UNK     0       3.044  -0.738  -2.319  0.00  0.00    +0.000 NA
ATOM      3  C20 UNK     0       0.322  -0.855  -1.991  0.00  0.00    +0.000 A 
ATOM      4  C22 UNK     0       1.117  -0.252  -1.004  0.00  0.00    +0.000 A 
ATOM      5  C23 UNK     0       2.503  -0.202  -1.191  0.00  0.00    +0.000 A 
ATOM      6  C30 UNK     0       2.262  -1.298  -3.277  0.00  0.00    +0.000 A 
ATOM      7  N6  UNK     0      -1.108  -0.903  -1.883  0.00  0.00    +0.000 N 
ATOM      8  H41 UNK     0      -1.657  -0.887  -2.772  0.00  0.00    +0.000 HD
ENDROOT
BRANCH   7   9
ATOM      9  C17 UNK     0      -1.836  -0.996  -0.646  0.00  0.00    +0.000 A 
ATOM     10  C15 UNK     0      -3.132  -0.461  -0.570  0.00  0.00    +0.000 A 
ATOM     11  C14 UNK     0      -3.899  -0.598   0.597  0.00  0.00    +0.000 A 
ATOM     12  C16 UNK     0      -3.348  -1.261   1.707  0.00  0.00    +0.000 A 
ATOM     13  C18 UNK     0      -2.066  -1.815   1.631  0.00  0.00    +0.000 A 
ATOM     14  C19 UNK     0      -1.316  -1.693   0.458  0.00  0.00    +0.000 A 
BRANCH  11  15
ATOM     15  N5  UNK     0      -5.209  -0.014   0.654  0.00  0.00    +0.000 N 
ATOM     16  H36 UNK     0      -5.370   0.845   0.084  0.00  0.00    +0.000 HD
ATOM     17  C13 UNK     0      -6.329  -0.656   1.297  0.00  0.00    +0.000 C 
ATOM     18  O4  UNK     0      -6.249  -1.871   1.621  0.00  0.00    +0.000 OA
BRANCH  17  19
ATOM     19  C10 UNK     0      -7.633   0.056   1.570  0.00  0.00    +0.000 C 
ATOM     20  C12 UNK     0      -8.181   0.909   0.435  0.00  0.00    +0.000 C 
ATOM     21  C11 UNK     0      -7.603   1.575   1.679  0.00  0.00    +0.000 C 
ENDBRANCH  17  19
ENDBRANCH  11  15
ENDBRANCH   7   9
BRANCH   5  22
ATOM     22  N7  UNK     0       3.345   0.373  -0.178  0.00  0.00    +0.000 N 
ATOM     23  H43 UNK     0       2.946   0.500   0.782  0.00  0.00    +0.000 HD
BRANCH  22  24
ATOM     24  C21 UNK     0       4.749   0.631  -0.358  0.00  0.00    +0.000 A 
ATOM     25  C25 UNK     0       5.633   0.417   0.711  0.00  0.00    +0.000 A 
ATOM     26  C24 UNK     0       7.010   0.667   0.567  0.00  0.00    +0.000 A 
ATOM     27  C27 UNK     0       7.497   1.118  -0.672  0.00  0.00    +0.000 A 
ATOM     28  C28 UNK     0       6.617   1.364  -1.728  0.00  0.00    +0.000 A 
ATOM     29  C26 UNK     0       5.248   1.134  -1.571  0.00  0.00    +0.000 A 
BRANCH  26  30
ATOM     30  C29 UNK     0       7.947   0.369   1.711  0.00  0.00    +0.000 C 
ATOM     31  F1  UNK     0       9.171   0.989   1.532  0.00  0.00    +0.000 F 
ATOM     32  F2  UNK     0       8.144  -0.998   1.794  0.00  0.00    +0.000 F 
ATOM     33  F3  UNK     0       7.401   0.822   2.899  0.00  0.00    +0.000 F 
ENDBRANCH  26  30
ENDBRANCH  22  24
ENDBRANCH   5  22
TORSDOF 6
