REMARK  Name = C:\Users\Maximilian\Desktop\Conformers\converted_pdb\conformers_pdb\VGX_1027_conf_71.pdb
REMARK  6 active torsions:
REMARK  status: ('A' for Active; 'I' for Inactive)
REMARK    1  A    between atoms: C23_5  and  N7_22
REMARK    2  A    between atoms: N6_7  and  C17_9
REMARK    3  A    between atoms: C14_11  and  N5_15
REMARK    4  A    between atoms: C13_17  and  C10_19
REMARK    5  A    between atoms: N7_22  and  C21_24
REMARK    6  A    between atoms: C24_26  and  C29_30
REMARK                            x       y       z     vdW  Elec       q    Type
REMARK                         _______ _______ _______ _____ _____    ______ ____
ROOT
ATOM      1  N8  UNK     0      -0.271   0.960   0.870  0.00  0.00    +0.000 NA
ATOM      2  N9  UNK     0      -2.531   0.314   0.950  0.00  0.00    +0.000 NA
ATOM      3  C20 UNK     0      -0.523   1.824  -0.151  0.00  0.00    +0.000 A 
ATOM      4  C22 UNK     0      -1.830   1.949  -0.635  0.00  0.00    +0.000 A 
ATOM      5  C23 UNK     0      -2.839   1.160  -0.071  0.00  0.00    +0.000 A 
ATOM      6  C30 UNK     0      -1.259   0.207   1.416  0.00  0.00    +0.000 A 
ATOM      7  N6  UNK     0       0.524   2.647  -0.691  0.00  0.00    +0.000 N 
ATOM      8  H41 UNK     0       0.249   3.496  -1.236  0.00  0.00    +0.000 HD
ENDROOT
BRANCH   7   9
ATOM      9  C17 UNK     0       1.921   2.452  -0.412  0.00  0.00    +0.000 A 
ATOM     10  C15 UNK     0       2.476   1.163  -0.319  0.00  0.00    +0.000 A 
ATOM     11  C14 UNK     0       3.846   0.988  -0.066  0.00  0.00    +0.000 A 
ATOM     12  C16 UNK     0       4.658   2.122   0.121  0.00  0.00    +0.000 A 
ATOM     13  C18 UNK     0       4.116   3.404  -0.002  0.00  0.00    +0.000 A 
ATOM     14  C19 UNK     0       2.758   3.569  -0.280  0.00  0.00    +0.000 A 
BRANCH  11  15
ATOM     15  N5  UNK     0       4.373  -0.347   0.049  0.00  0.00    +0.000 N 
ATOM     16  H36 UNK     0       3.713  -1.112   0.317  0.00  0.00    +0.000 HD
ATOM     17  C13 UNK     0       5.717  -0.724  -0.284  0.00  0.00    +0.000 C 
ATOM     18  O4  UNK     0       6.466   0.065  -0.923  0.00  0.00    +0.000 OA
BRANCH  17  19
ATOM     19  C10 UNK     0       6.201  -2.100   0.089  0.00  0.00    +0.000 C 
ATOM     20  C12 UNK     0       7.551  -2.549  -0.461  0.00  0.00    +0.000 C 
ATOM     21  C11 UNK     0       6.264  -3.057  -1.093  0.00  0.00    +0.000 C 
ENDBRANCH  17  19
ENDBRANCH  11  15
ENDBRANCH   7   9
BRANCH   5  22
ATOM     22  N7  UNK     0      -4.196   1.291  -0.532  0.00  0.00    +0.000 N 
ATOM     23  H43 UNK     0      -4.445   2.147  -1.079  0.00  0.00    +0.000 HD
BRANCH  22  24
ATOM     24  C21 UNK     0      -5.258   0.386  -0.183  0.00  0.00    +0.000 A 
ATOM     25  C25 UNK     0      -5.028  -0.995  -0.040  0.00  0.00    +0.000 A 
ATOM     26  C24 UNK     0      -6.076  -1.863   0.315  0.00  0.00    +0.000 A 
ATOM     27  C27 UNK     0      -7.375  -1.345   0.455  0.00  0.00    +0.000 A 
ATOM     28  C28 UNK     0      -7.614   0.020   0.280  0.00  0.00    +0.000 A 
ATOM     29  C26 UNK     0      -6.562   0.881  -0.037  0.00  0.00    +0.000 A 
BRANCH  26  30
ATOM     30  C29 UNK     0      -5.830  -3.345   0.450  0.00  0.00    +0.000 C 
ATOM     31  F1  UNK     0      -6.672  -3.890   1.404  0.00  0.00    +0.000 F 
ATOM     32  F2  UNK     0      -4.523  -3.596   0.833  0.00  0.00    +0.000 F 
ATOM     33  F3  UNK     0      -6.069  -3.959  -0.765  0.00  0.00    +0.000 F 
ENDBRANCH  26  30
ENDBRANCH  22  24
ENDBRANCH   5  22
TORSDOF 6
