REMARK  Name = C:\Users\Maximilian\Desktop\Conformers\converted_pdb\conformers_pdb\VGX_1027_conf_85.pdb
REMARK  6 active torsions:
REMARK  status: ('A' for Active; 'I' for Inactive)
REMARK    1  A    between atoms: C23_5  and  N7_22
REMARK    2  A    between atoms: N6_7  and  C17_9
REMARK    3  A    between atoms: C14_11  and  N5_15
REMARK    4  A    between atoms: C13_17  and  C10_19
REMARK    5  A    between atoms: N7_22  and  C21_24
REMARK    6  A    between atoms: C24_26  and  C29_30
REMARK                            x       y       z     vdW  Elec       q    Type
REMARK                         _______ _______ _______ _____ _____    ______ ____
ROOT
ATOM      1  N8  UNK     0      -0.196  -1.817  -0.624  0.00  0.00    +0.000 NA
ATOM      2  N9  UNK     0       1.682  -2.797   0.399  0.00  0.00    +0.000 NA
ATOM      3  C20 UNK     0       0.535  -0.730  -0.991  0.00  0.00    +0.000 A 
ATOM      4  C22 UNK     0       1.894  -0.676  -0.668  0.00  0.00    +0.000 A 
ATOM      5  C23 UNK     0       2.458  -1.732   0.065  0.00  0.00    +0.000 A 
ATOM      6  C30 UNK     0       0.366  -2.842   0.066  0.00  0.00    +0.000 A 
ATOM      7  N6  UNK     0      -0.063   0.330  -1.757  0.00  0.00    +0.000 N 
ATOM      8  H41 UNK     0       0.571   0.964  -2.296  0.00  0.00    +0.000 HD
ENDROOT
BRANCH   7   9
ATOM      9  C17 UNK     0      -1.481   0.505  -1.916  0.00  0.00    +0.000 A 
ATOM     10  C15 UNK     0      -2.373   0.240  -0.861  0.00  0.00    +0.000 A 
ATOM     11  C14 UNK     0      -3.755   0.426  -1.027  0.00  0.00    +0.000 A 
ATOM     12  C16 UNK     0      -4.237   0.930  -2.248  0.00  0.00    +0.000 A 
ATOM     13  C18 UNK     0      -3.351   1.218  -3.289  0.00  0.00    +0.000 A 
ATOM     14  C19 UNK     0      -1.980   1.011  -3.124  0.00  0.00    +0.000 A 
BRANCH  11  15
ATOM     15  N5  UNK     0      -4.641   0.162   0.075  0.00  0.00    +0.000 N 
ATOM     16  H36 UNK     0      -4.236   0.219   1.035  0.00  0.00    +0.000 HD
ATOM     17  C13 UNK     0      -5.994  -0.303  -0.088  0.00  0.00    +0.000 C 
ATOM     18  O4  UNK     0      -6.338  -0.853  -1.169  0.00  0.00    +0.000 OA
BRANCH  17  19
ATOM     19  C10 UNK     0      -7.032  -0.195   1.004  0.00  0.00    +0.000 C 
ATOM     20  C12 UNK     0      -6.797   0.831   2.103  0.00  0.00    +0.000 C 
ATOM     21  C11 UNK     0      -6.593  -0.652   2.387  0.00  0.00    +0.000 C 
ENDBRANCH  17  19
ENDBRANCH  11  15
ENDBRANCH   7   9
BRANCH   5  22
ATOM     22  N7  UNK     0       3.852  -1.748   0.408  0.00  0.00    +0.000 N 
ATOM     23  H43 UNK     0       4.315  -2.681   0.500  0.00  0.00    +0.000 HD
BRANCH  22  24
ATOM     24  C21 UNK     0       4.650  -0.574   0.641  0.00  0.00    +0.000 A 
ATOM     25  C25 UNK     0       6.017  -0.596   0.327  0.00  0.00    +0.000 A 
ATOM     26  C24 UNK     0       6.831   0.523   0.580  0.00  0.00    +0.000 A 
ATOM     27  C27 UNK     0       6.251   1.680   1.126  0.00  0.00    +0.000 A 
ATOM     28  C28 UNK     0       4.896   1.698   1.464  0.00  0.00    +0.000 A 
ATOM     29  C26 UNK     0       4.100   0.575   1.235  0.00  0.00    +0.000 A 
BRANCH  26  30
ATOM     30  C29 UNK     0       8.285   0.514   0.180  0.00  0.00    +0.000 C 
ATOM     31  F1  UNK     0       8.401   0.959  -1.124  0.00  0.00    +0.000 F 
ATOM     32  F2  UNK     0       8.810  -0.764   0.268  0.00  0.00    +0.000 F 
ATOM     33  F3  UNK     0       9.025   1.343   1.006  0.00  0.00    +0.000 F 
ENDBRANCH  26  30
ENDBRANCH  22  24
ENDBRANCH   5  22
TORSDOF 6
