REMARK  Name = C:\Users\Maximilian\Desktop\Conformers\converted_pdb\conformers_pdb\VGX_1027_conf_64.pdb
REMARK  6 active torsions:
REMARK  status: ('A' for Active; 'I' for Inactive)
REMARK    1  A    between atoms: C23_5  and  N7_22
REMARK    2  A    between atoms: N6_7  and  C17_9
REMARK    3  A    between atoms: C14_11  and  N5_15
REMARK    4  A    between atoms: C13_17  and  C10_19
REMARK    5  A    between atoms: N7_22  and  C21_24
REMARK    6  A    between atoms: C24_26  and  C29_30
REMARK                            x       y       z     vdW  Elec       q    Type
REMARK                         _______ _______ _______ _____ _____    ______ ____
ROOT
ATOM      1  N8  UNK     0       1.179  -2.729  -2.176  0.00  0.00    +0.000 NA
ATOM      2  N9  UNK     0       3.220  -1.836  -1.418  0.00  0.00    +0.000 NA
ATOM      3  C20 UNK     0       0.476  -1.818  -1.452  0.00  0.00    +0.000 A 
ATOM      4  C22 UNK     0       1.169  -0.894  -0.655  0.00  0.00    +0.000 A 
ATOM      5  C23 UNK     0       2.568  -0.908  -0.667  0.00  0.00    +0.000 A 
ATOM      6  C30 UNK     0       2.537  -2.739  -2.168  0.00  0.00    +0.000 A 
ATOM      7  N6  UNK     0      -0.959  -1.869  -1.467  0.00  0.00    +0.000 N 
ATOM      8  H41 UNK     0      -1.406  -2.796  -1.647  0.00  0.00    +0.000 HD
ENDROOT
BRANCH   7   9
ATOM      9  C17 UNK     0      -1.817  -0.734  -1.264  0.00  0.00    +0.000 A 
ATOM     10  C15 UNK     0      -3.073  -0.918  -0.667  0.00  0.00    +0.000 A 
ATOM     11  C14 UNK     0      -3.952   0.163  -0.491  0.00  0.00    +0.000 A 
ATOM     12  C16 UNK     0      -3.550   1.446  -0.905  0.00  0.00    +0.000 A 
ATOM     13  C18 UNK     0      -2.310   1.631  -1.521  0.00  0.00    +0.000 A 
ATOM     14  C19 UNK     0      -1.451   0.547  -1.711  0.00  0.00    +0.000 A 
BRANCH  11  15
ATOM     15  N5  UNK     0      -5.217  -0.052   0.159  0.00  0.00    +0.000 N 
ATOM     16  H36 UNK     0      -5.288  -0.870   0.805  0.00  0.00    +0.000 HD
ATOM     17  C13 UNK     0      -6.401   0.715  -0.131  0.00  0.00    +0.000 C 
ATOM     18  O4  UNK     0      -6.491   1.330  -1.228  0.00  0.00    +0.000 OA
BRANCH  17  19
ATOM     19  C10 UNK     0      -7.576   0.792   0.815  0.00  0.00    +0.000 C 
ATOM     20  C12 UNK     0      -7.325   0.461   2.279  0.00  0.00    +0.000 C 
ATOM     21  C11 UNK     0      -8.060  -0.531   1.387  0.00  0.00    +0.000 C 
ENDBRANCH  17  19
ENDBRANCH  11  15
ENDBRANCH   7   9
BRANCH   5  22
ATOM     22  N7  UNK     0       3.301   0.016   0.154  0.00  0.00    +0.000 N 
ATOM     23  H43 UNK     0       2.795   0.484   0.940  0.00  0.00    +0.000 HD
BRANCH  22  24
ATOM     24  C21 UNK     0       4.713   0.259   0.026  0.00  0.00    +0.000 A 
ATOM     25  C25 UNK     0       5.471   0.539   1.173  0.00  0.00    +0.000 A 
ATOM     26  C24 UNK     0       6.851   0.790   1.081  0.00  0.00    +0.000 A 
ATOM     27  C27 UNK     0       7.457   0.817  -0.187  0.00  0.00    +0.000 A 
ATOM     28  C28 UNK     0       6.702   0.564  -1.335  0.00  0.00    +0.000 A 
ATOM     29  C26 UNK     0       5.337   0.288  -1.233  0.00  0.00    +0.000 A 
BRANCH  26  30
ATOM     30  C29 UNK     0       7.644   1.118   2.321  0.00  0.00    +0.000 C 
ATOM     31  F1  UNK     0       7.483   2.457   2.624  0.00  0.00    +0.000 F 
ATOM     32  F2  UNK     0       8.990   0.857   2.134  0.00  0.00    +0.000 F 
ATOM     33  F3  UNK     0       7.201   0.356   3.390  0.00  0.00    +0.000 F 
ENDBRANCH  26  30
ENDBRANCH  22  24
ENDBRANCH   5  22
TORSDOF 6
