REMARK  Name = C:\Users\Maximilian\Desktop\Conformers\converted_pdb\conformers_pdb\VGX_1027_conf_69.pdb
REMARK  6 active torsions:
REMARK  status: ('A' for Active; 'I' for Inactive)
REMARK    1  A    between atoms: C23_5  and  N7_22
REMARK    2  A    between atoms: N6_7  and  C17_9
REMARK    3  A    between atoms: C14_11  and  N5_15
REMARK    4  A    between atoms: C13_17  and  C10_19
REMARK    5  A    between atoms: N7_22  and  C21_24
REMARK    6  A    between atoms: C24_26  and  C29_30
REMARK                            x       y       z     vdW  Elec       q    Type
REMARK                         _______ _______ _______ _____ _____    ______ ____
ROOT
ATOM      1  N8  UNK     0      -0.720  -1.019   1.089  0.00  0.00    +0.000 NA
ATOM      2  N9  UNK     0      -3.046  -0.666   1.107  0.00  0.00    +0.000 NA
ATOM      3  C20 UNK     0      -0.508   0.216   0.557  0.00  0.00    +0.000 A 
ATOM      4  C22 UNK     0      -1.605   1.037   0.271  0.00  0.00    +0.000 A 
ATOM      5  C23 UNK     0      -2.892   0.567   0.553  0.00  0.00    +0.000 A 
ATOM      6  C30 UNK     0      -1.974  -1.458   1.368  0.00  0.00    +0.000 A 
ATOM      7  N6  UNK     0       0.822   0.660   0.242  0.00  0.00    +0.000 N 
ATOM      8  H41 UNK     0       0.929   1.442  -0.443  0.00  0.00    +0.000 HD
ENDROOT
BRANCH   7   9
ATOM      9  C17 UNK     0       2.018   0.025   0.727  0.00  0.00    +0.000 A 
ATOM     10  C15 UNK     0       3.158  -0.012  -0.091  0.00  0.00    +0.000 A 
ATOM     11  C14 UNK     0       4.351  -0.601   0.367  0.00  0.00    +0.000 A 
ATOM     12  C16 UNK     0       4.383  -1.175   1.645  0.00  0.00    +0.000 A 
ATOM     13  C18 UNK     0       3.260  -1.119   2.474  0.00  0.00    +0.000 A 
ATOM     14  C19 UNK     0       2.086  -0.512   2.024  0.00  0.00    +0.000 A 
BRANCH  11  15
ATOM     15  N5  UNK     0       5.517  -0.681  -0.470  0.00  0.00    +0.000 N 
ATOM     16  H36 UNK     0       6.158  -1.496  -0.339  0.00  0.00    +0.000 HD
ATOM     17  C13 UNK     0       5.923   0.348  -1.387  0.00  0.00    +0.000 C 
ATOM     18  O4  UNK     0       5.339   1.465  -1.404  0.00  0.00    +0.000 OA
BRANCH  17  19
ATOM     19  C10 UNK     0       7.047   0.090  -2.346  0.00  0.00    +0.000 C 
ATOM     20  C12 UNK     0       8.392  -0.175  -1.686  0.00  0.00    +0.000 C 
ATOM     21  C11 UNK     0       8.133   1.157  -2.368  0.00  0.00    +0.000 C 
ENDBRANCH  17  19
ENDBRANCH  11  15
ENDBRANCH   7   9
BRANCH   5  22
ATOM     22  N7  UNK     0      -4.032   1.406   0.304  0.00  0.00    +0.000 N 
ATOM     23  H43 UNK     0      -3.871   2.433   0.191  0.00  0.00    +0.000 HD
BRANCH  22  24
ATOM     24  C21 UNK     0      -5.391   0.937   0.313  0.00  0.00    +0.000 A 
ATOM     25  C25 UNK     0      -5.731  -0.331  -0.192  0.00  0.00    +0.000 A 
ATOM     26  C24 UNK     0      -7.067  -0.772  -0.184  0.00  0.00    +0.000 A 
ATOM     27  C27 UNK     0      -8.070   0.096   0.280  0.00  0.00    +0.000 A 
ATOM     28  C28 UNK     0      -7.739   1.365   0.759  0.00  0.00    +0.000 A 
ATOM     29  C26 UNK     0      -6.408   1.785   0.773  0.00  0.00    +0.000 A 
BRANCH  26  30
ATOM     30  C29 UNK     0      -7.427  -2.117  -0.764  0.00  0.00    +0.000 C 
ATOM     31  F1  UNK     0      -6.408  -3.028  -0.550  0.00  0.00    +0.000 F 
ATOM     32  F2  UNK     0      -7.635  -1.984  -2.124  0.00  0.00    +0.000 F 
ATOM     33  F3  UNK     0      -8.579  -2.612  -0.178  0.00  0.00    +0.000 F 
ENDBRANCH  26  30
ENDBRANCH  22  24
ENDBRANCH   5  22
TORSDOF 6
