REMARK  Name = C:\Users\Maximilian\Desktop\Conformers\converted_pdb\conformers_pdb\VGX_1027_conf_22.pdb
REMARK  6 active torsions:
REMARK  status: ('A' for Active; 'I' for Inactive)
REMARK    1  A    between atoms: C23_5  and  N7_22
REMARK    2  A    between atoms: N6_7  and  C17_9
REMARK    3  A    between atoms: C14_11  and  N5_15
REMARK    4  A    between atoms: C13_17  and  C10_19
REMARK    5  A    between atoms: N7_22  and  C21_24
REMARK    6  A    between atoms: C24_26  and  C29_30
REMARK                            x       y       z     vdW  Elec       q    Type
REMARK                         _______ _______ _______ _____ _____    ______ ____
ROOT
ATOM      1  N8  UNK     0       1.255   4.506  -0.576  0.00  0.00    +0.000 NA
ATOM      2  N9  UNK     0       3.494   3.821  -0.802  0.00  0.00    +0.000 NA
ATOM      3  C20 UNK     0       0.843   3.218  -0.436  0.00  0.00    +0.000 A 
ATOM      4  C22 UNK     0       1.795   2.188  -0.455  0.00  0.00    +0.000 A 
ATOM      5  C23 UNK     0       3.146   2.518  -0.627  0.00  0.00    +0.000 A 
ATOM      6  C30 UNK     0       2.564   4.809  -0.771  0.00  0.00    +0.000 A 
ATOM      7  N6  UNK     0      -0.548   2.947  -0.204  0.00  0.00    +0.000 N 
ATOM      8  H41 UNK     0      -1.107   3.679   0.294  0.00  0.00    +0.000 HD
ENDROOT
BRANCH   7   9
ATOM      9  C17 UNK     0      -1.218   1.740  -0.607  0.00  0.00    +0.000 A 
ATOM     10  C15 UNK     0      -2.281   1.250   0.166  0.00  0.00    +0.000 A 
ATOM     11  C14 UNK     0      -2.956   0.075  -0.203  0.00  0.00    +0.000 A 
ATOM     12  C16 UNK     0      -2.588  -0.582  -1.391  0.00  0.00    +0.000 A 
ATOM     13  C18 UNK     0      -1.548  -0.083  -2.178  0.00  0.00    +0.000 A 
ATOM     14  C19 UNK     0      -0.866   1.072  -1.792  0.00  0.00    +0.000 A 
BRANCH  11  15
ATOM     15  N5  UNK     0      -4.044  -0.400   0.610  0.00  0.00    +0.000 N 
ATOM     16  H36 UNK     0      -4.533   0.301   1.209  0.00  0.00    +0.000 HD
ATOM     17  C13 UNK     0      -4.384  -1.792   0.745  0.00  0.00    +0.000 C 
ATOM     18  O4  UNK     0      -3.521  -2.672   0.483  0.00  0.00    +0.000 OA
BRANCH  17  19
ATOM     19  C10 UNK     0      -5.737  -2.258   1.227  0.00  0.00    +0.000 C 
ATOM     20  C12 UNK     0      -6.895  -1.272   1.159  0.00  0.00    +0.000 C 
ATOM     21  C11 UNK     0      -6.248  -1.598   2.498  0.00  0.00    +0.000 C 
ENDBRANCH  17  19
ENDBRANCH  11  15
ENDBRANCH   7   9
BRANCH   5  22
ATOM     22  N7  UNK     0       4.167   1.508  -0.674  0.00  0.00    +0.000 N 
ATOM     23  H43 UNK     0       5.014   1.708  -1.252  0.00  0.00    +0.000 HD
BRANCH  22  24
ATOM     24  C21 UNK     0       4.106   0.250   0.020  0.00  0.00    +0.000 A 
ATOM     25  C25 UNK     0       4.749  -0.872  -0.527  0.00  0.00    +0.000 A 
ATOM     26  C24 UNK     0       4.742  -2.106   0.150  0.00  0.00    +0.000 A 
ATOM     27  C27 UNK     0       4.067  -2.208   1.377  0.00  0.00    +0.000 A 
ATOM     28  C28 UNK     0       3.445  -1.090   1.936  0.00  0.00    +0.000 A 
ATOM     29  C26 UNK     0       3.474   0.137   1.271  0.00  0.00    +0.000 A 
BRANCH  26  30
ATOM     30  C29 UNK     0       5.388  -3.331  -0.446  0.00  0.00    +0.000 C 
ATOM     31  F1  UNK     0       6.127  -3.990   0.522  0.00  0.00    +0.000 F 
ATOM     32  F2  UNK     0       6.236  -3.000  -1.490  0.00  0.00    +0.000 F 
ATOM     33  F3  UNK     0       4.406  -4.181  -0.920  0.00  0.00    +0.000 F 
ENDBRANCH  26  30
ENDBRANCH  22  24
ENDBRANCH   5  22
TORSDOF 6
