REMARK  Name = C:\Users\Maximilian\Desktop\Conformers\converted_pdb\conformers_pdb\VGX_1027_conf_4.pdb
REMARK  6 active torsions:
REMARK  status: ('A' for Active; 'I' for Inactive)
REMARK    1  A    between atoms: C23_5  and  N7_22
REMARK    2  A    between atoms: N6_7  and  C17_9
REMARK    3  A    between atoms: C14_11  and  N5_15
REMARK    4  A    between atoms: C13_17  and  C10_19
REMARK    5  A    between atoms: N7_22  and  C21_24
REMARK    6  A    between atoms: C24_26  and  C29_30
REMARK                            x       y       z     vdW  Elec       q    Type
REMARK                         _______ _______ _______ _____ _____    ______ ____
ROOT
ATOM      1  N8  UNK     0       1.347   0.878  -2.948  0.00  0.00    +0.000 NA
ATOM      2  N9  UNK     0       3.319   0.158  -1.885  0.00  0.00    +0.000 NA
ATOM      3  C20 UNK     0       0.589   0.428  -1.913  0.00  0.00    +0.000 A 
ATOM      4  C22 UNK     0       1.214  -0.209  -0.831  0.00  0.00    +0.000 A 
ATOM      5  C23 UNK     0       2.609  -0.319  -0.826  0.00  0.00    +0.000 A 
ATOM      6  C30 UNK     0       2.699   0.752  -2.937  0.00  0.00    +0.000 A 
ATOM      7  N6  UNK     0      -0.840   0.552  -1.987  0.00  0.00    +0.000 N 
ATOM      8  H41 UNK     0      -1.273   0.570  -2.939  0.00  0.00    +0.000 HD
ENDROOT
BRANCH   7   9
ATOM      9  C17 UNK     0      -1.711   0.659  -0.848  0.00  0.00    +0.000 A 
ATOM     10  C15 UNK     0      -3.014   0.145  -0.926  0.00  0.00    +0.000 A 
ATOM     11  C14 UNK     0      -3.893   0.247   0.164  0.00  0.00    +0.000 A 
ATOM     12  C16 UNK     0      -3.471   0.920   1.324  0.00  0.00    +0.000 A 
ATOM     13  C18 UNK     0      -2.184   1.456   1.398  0.00  0.00    +0.000 A 
ATOM     14  C19 UNK     0      -1.307   1.331   0.318  0.00  0.00    +0.000 A 
BRANCH  11  15
ATOM     15  N5  UNK     0      -5.226  -0.284   0.049  0.00  0.00    +0.000 N 
ATOM     16  H36 UNK     0      -5.621  -0.372  -0.913  0.00  0.00    +0.000 HD
ATOM     17  C13 UNK     0      -5.967  -0.817   1.163  0.00  0.00    +0.000 C 
ATOM     18  O4  UNK     0      -5.353  -1.188   2.199  0.00  0.00    +0.000 OA
BRANCH  17  19
ATOM     19  C10 UNK     0      -7.467  -0.991   1.136  0.00  0.00    +0.000 C 
ATOM     20  C12 UNK     0      -8.038  -1.657  -0.106  0.00  0.00    +0.000 C 
ATOM     21  C11 UNK     0      -8.257  -0.168   0.129  0.00  0.00    +0.000 C 
ENDBRANCH  17  19
ENDBRANCH  11  15
ENDBRANCH   7   9
BRANCH   5  22
ATOM     22  N7  UNK     0       3.273  -0.982   0.261  0.00  0.00    +0.000 N 
ATOM     23  H43 UNK     0       2.705  -1.610   0.874  0.00  0.00    +0.000 HD
BRANCH  22  24
ATOM     24  C21 UNK     0       4.691  -0.921   0.495  0.00  0.00    +0.000 A 
ATOM     25  C25 UNK     0       5.421   0.258   0.256  0.00  0.00    +0.000 A 
ATOM     26  C24 UNK     0       6.806   0.305   0.497  0.00  0.00    +0.000 A 
ATOM     27  C27 UNK     0       7.443  -0.824   1.041  0.00  0.00    +0.000 A 
ATOM     28  C28 UNK     0       6.716  -1.987   1.303  0.00  0.00    +0.000 A 
ATOM     29  C26 UNK     0       5.347  -2.035   1.035  0.00  0.00    +0.000 A 
BRANCH  26  30
ATOM     30  C29 UNK     0       7.574   1.584   0.277  0.00  0.00    +0.000 C 
ATOM     31  F1  UNK     0       7.505   2.359   1.420  0.00  0.00    +0.000 F 
ATOM     32  F2  UNK     0       7.041   2.295  -0.784  0.00  0.00    +0.000 F 
ATOM     33  F3  UNK     0       8.902   1.316  -0.007  0.00  0.00    +0.000 F 
ENDBRANCH  26  30
ENDBRANCH  22  24
ENDBRANCH   5  22
TORSDOF 6
