REMARK  Name = C:\Users\Maximilian\Desktop\Conformers\converted_pdb\conformers_pdb\VGX_1027_conf_79.pdb
REMARK  6 active torsions:
REMARK  status: ('A' for Active; 'I' for Inactive)
REMARK    1  A    between atoms: C23_5  and  N7_22
REMARK    2  A    between atoms: N6_7  and  C17_9
REMARK    3  A    between atoms: C14_11  and  N5_15
REMARK    4  A    between atoms: C13_17  and  C10_19
REMARK    5  A    between atoms: N7_22  and  C21_24
REMARK    6  A    between atoms: C24_26  and  C29_30
REMARK                            x       y       z     vdW  Elec       q    Type
REMARK                         _______ _______ _______ _____ _____    ______ ____
ROOT
ATOM      1  N8  UNK     0       0.718  -3.227   0.919  0.00  0.00    +0.000 NA
ATOM      2  N9  UNK     0       2.920  -2.480   0.558  0.00  0.00    +0.000 NA
ATOM      3  C20 UNK     0       0.216  -2.015   0.562  0.00  0.00    +0.000 A 
ATOM      4  C22 UNK     0       1.097  -1.000   0.160  0.00  0.00    +0.000 A 
ATOM      5  C23 UNK     0       2.473  -1.250   0.185  0.00  0.00    +0.000 A 
ATOM      6  C30 UNK     0       2.056  -3.461   0.924  0.00  0.00    +0.000 A 
ATOM      7  N6  UNK     0      -1.208  -1.827   0.538  0.00  0.00    +0.000 N 
ATOM      8  H41 UNK     0      -1.802  -2.671   0.370  0.00  0.00    +0.000 HD
ENDROOT
BRANCH   7   9
ATOM      9  C17 UNK     0      -1.869  -0.566   0.738  0.00  0.00    +0.000 A 
ATOM     10  C15 UNK     0      -3.090  -0.319   0.092  0.00  0.00    +0.000 A 
ATOM     11  C14 UNK     0      -3.775   0.894   0.293  0.00  0.00    +0.000 A 
ATOM     12  C16 UNK     0      -3.212   1.866   1.132  0.00  0.00    +0.000 A 
ATOM     13  C18 UNK     0      -2.011   1.615   1.798  0.00  0.00    +0.000 A 
ATOM     14  C19 UNK     0      -1.346   0.401   1.614  0.00  0.00    +0.000 A 
BRANCH  11  15
ATOM     15  N5  UNK     0      -5.007   1.181  -0.389  0.00  0.00    +0.000 N 
ATOM     16  H36 UNK     0      -5.216   2.178  -0.622  0.00  0.00    +0.000 HD
ATOM     17  C13 UNK     0      -6.026   0.204  -0.659  0.00  0.00    +0.000 C 
ATOM     18  O4  UNK     0      -5.950  -0.957  -0.175  0.00  0.00    +0.000 OA
BRANCH  17  19
ATOM     19  C10 UNK     0      -7.189   0.562  -1.536  0.00  0.00    +0.000 C 
ATOM     20  C12 UNK     0      -8.073   1.673  -0.989  0.00  0.00    +0.000 C 
ATOM     21  C11 UNK     0      -8.558   0.234  -0.957  0.00  0.00    +0.000 C 
ENDBRANCH  17  19
ENDBRANCH  11  15
ENDBRANCH   7   9
BRANCH   5  22
ATOM     22  N7  UNK     0       3.395  -0.234  -0.241  0.00  0.00    +0.000 N 
ATOM     23  H43 UNK     0       3.024   0.555  -0.818  0.00  0.00    +0.000 HD
BRANCH  22  24
ATOM     24  C21 UNK     0       4.814  -0.289  -0.012  0.00  0.00    +0.000 A 
ATOM     25  C25 UNK     0       5.686   0.257  -0.966  0.00  0.00    +0.000 A 
ATOM     26  C24 UNK     0       7.078   0.230  -0.768  0.00  0.00    +0.000 A 
ATOM     27  C27 UNK     0       7.586  -0.298   0.432  0.00  0.00    +0.000 A 
ATOM     28  C28 UNK     0       6.721  -0.820   1.395  0.00  0.00    +0.000 A 
ATOM     29  C26 UNK     0       5.342  -0.815   1.179  0.00  0.00    +0.000 A 
BRANCH  26  30
ATOM     30  C29 UNK     0       8.006   0.850  -1.783  0.00  0.00    +0.000 C 
ATOM     31  F1  UNK     0       8.159   2.194  -1.497  0.00  0.00    +0.000 F 
ATOM     32  F2  UNK     0       7.490   0.716  -3.060  0.00  0.00    +0.000 F 
ATOM     33  F3  UNK     0       9.247   0.238  -1.752  0.00  0.00    +0.000 F 
ENDBRANCH  26  30
ENDBRANCH  22  24
ENDBRANCH   5  22
TORSDOF 6
