REMARK  Name = C:\Users\Maximilian\Desktop\Conformers\converted_pdb\conformers_pdb\VGX_1027_conf_36.pdb
REMARK  6 active torsions:
REMARK  status: ('A' for Active; 'I' for Inactive)
REMARK    1  A    between atoms: C23_5  and  N7_22
REMARK    2  A    between atoms: N6_7  and  C17_9
REMARK    3  A    between atoms: C14_11  and  N5_15
REMARK    4  A    between atoms: C13_17  and  C10_19
REMARK    5  A    between atoms: N7_22  and  C21_24
REMARK    6  A    between atoms: C24_26  and  C29_30
REMARK                            x       y       z     vdW  Elec       q    Type
REMARK                         _______ _______ _______ _____ _____    ______ ____
ROOT
ATOM      1  N8  UNK     0      -1.506  -0.874  -3.047  0.00  0.00    +0.000 NA
ATOM      2  N9  UNK     0      -3.425  -0.796  -1.688  0.00  0.00    +0.000 NA
ATOM      3  C20 UNK     0      -0.707  -0.576  -1.989  0.00  0.00    +0.000 A 
ATOM      4  C22 UNK     0      -1.289  -0.349  -0.733  0.00  0.00    +0.000 A 
ATOM      5  C23 UNK     0      -2.677  -0.464  -0.601  0.00  0.00    +0.000 A 
ATOM      6  C30 UNK     0      -2.851  -0.992  -2.902  0.00  0.00    +0.000 A 
ATOM      7  N6  UNK     0       0.707  -0.436  -2.198  0.00  0.00    +0.000 N 
ATOM      8  H41 UNK     0       1.026  -0.141  -3.149  0.00  0.00    +0.000 HD
ENDROOT
BRANCH   7   9
ATOM      9  C17 UNK     0       1.710  -0.677  -1.196  0.00  0.00    +0.000 A 
ATOM     10  C15 UNK     0       2.907   0.053  -1.229  0.00  0.00    +0.000 A 
ATOM     11  C14 UNK     0       3.911  -0.169  -0.273  0.00  0.00    +0.000 A 
ATOM     12  C16 UNK     0       3.728  -1.175   0.692  0.00  0.00    +0.000 A 
ATOM     13  C18 UNK     0       2.548  -1.923   0.714  0.00  0.00    +0.000 A 
ATOM     14  C19 UNK     0       1.544  -1.680  -0.226  0.00  0.00    +0.000 A 
BRANCH  11  15
ATOM     15  N5  UNK     0       5.129   0.592  -0.341  0.00  0.00    +0.000 N 
ATOM     16  H36 UNK     0       5.426   0.964  -1.272  0.00  0.00    +0.000 HD
ATOM     17  C13 UNK     0       5.915   0.958   0.803  0.00  0.00    +0.000 C 
ATOM     18  O4  UNK     0       5.436   0.872   1.966  0.00  0.00    +0.000 OA
BRANCH  17  19
ATOM     19  C10 UNK     0       7.282   1.540   0.614  0.00  0.00    +0.000 C 
ATOM     20  C12 UNK     0       8.252   0.644  -0.141  0.00  0.00    +0.000 C 
ATOM     21  C11 UNK     0       8.391   0.815   1.362  0.00  0.00    +0.000 C 
ENDBRANCH  17  19
ENDBRANCH  11  15
ENDBRANCH   7   9
BRANCH   5  22
ATOM     22  N7  UNK     0      -3.293  -0.276   0.684  0.00  0.00    +0.000 N 
ATOM     23  H43 UNK     0      -2.688  -0.346   1.533  0.00  0.00    +0.000 HD
BRANCH  22  24
ATOM     24  C21 UNK     0      -4.708  -0.112   0.880  0.00  0.00    +0.000 A 
ATOM     25  C25 UNK     0      -5.492   0.623  -0.029  0.00  0.00    +0.000 A 
ATOM     26  C24 UNK     0      -6.870   0.802   0.195  0.00  0.00    +0.000 A 
ATOM     27  C27 UNK     0      -7.461   0.212   1.325  0.00  0.00    +0.000 A 
ATOM     28  C28 UNK     0      -6.680  -0.496   2.242  0.00  0.00    +0.000 A 
ATOM     29  C26 UNK     0      -5.309  -0.647   2.027  0.00  0.00    +0.000 A 
BRANCH  26  30
ATOM     30  C29 UNK     0      -7.713   1.542  -0.813  0.00  0.00    +0.000 C 
ATOM     31  F1  UNK     0      -8.829   2.096  -0.209  0.00  0.00    +0.000 F 
ATOM     32  F2  UNK     0      -8.124   0.662  -1.796  0.00  0.00    +0.000 F 
ATOM     33  F3  UNK     0      -6.987   2.565  -1.398  0.00  0.00    +0.000 F 
ENDBRANCH  26  30
ENDBRANCH  22  24
ENDBRANCH   5  22
TORSDOF 6
