REMARK  Name = C:\Users\Maximilian\Desktop\Conformers\converted_pdb\conformers_pdb\VGX_1027_conf_46.pdb
REMARK  6 active torsions:
REMARK  status: ('A' for Active; 'I' for Inactive)
REMARK    1  A    between atoms: C23_5  and  N7_22
REMARK    2  A    between atoms: N6_7  and  C17_9
REMARK    3  A    between atoms: C14_11  and  N5_15
REMARK    4  A    between atoms: C13_17  and  C10_19
REMARK    5  A    between atoms: N7_22  and  C21_24
REMARK    6  A    between atoms: C24_26  and  C29_30
REMARK                            x       y       z     vdW  Elec       q    Type
REMARK                         _______ _______ _______ _____ _____    ______ ____
ROOT
ATOM      1  N8  UNK     0      -0.500  -1.163   0.924  0.00  0.00    +0.000 NA
ATOM      2  N9  UNK     0      -2.822  -1.202   0.551  0.00  0.00    +0.000 NA
ATOM      3  C20 UNK     0      -0.404   0.081   0.380  0.00  0.00    +0.000 A 
ATOM      4  C22 UNK     0      -1.556   0.702  -0.116  0.00  0.00    +0.000 A 
ATOM      5  C23 UNK     0      -2.780   0.030  -0.024  0.00  0.00    +0.000 A 
ATOM      6  C30 UNK     0      -1.695  -1.800   1.017  0.00  0.00    +0.000 A 
ATOM      7  N6  UNK     0       0.870   0.736   0.268  0.00  0.00    +0.000 N 
ATOM      8  H41 UNK     0       0.962   1.513  -0.426  0.00  0.00    +0.000 HD
ENDROOT
BRANCH   7   9
ATOM      9  C17 UNK     0       2.053   0.320   0.972  0.00  0.00    +0.000 A 
ATOM     10  C15 UNK     0       3.307   0.472   0.361  0.00  0.00    +0.000 A 
ATOM     11  C14 UNK     0       4.484   0.091   1.033  0.00  0.00    +0.000 A 
ATOM     12  C16 UNK     0       4.394  -0.397   2.344  0.00  0.00    +0.000 A 
ATOM     13  C18 UNK     0       3.151  -0.528   2.967  0.00  0.00    +0.000 A 
ATOM     14  C19 UNK     0       1.985  -0.170   2.288  0.00  0.00    +0.000 A 
BRANCH  11  15
ATOM     15  N5  UNK     0       5.779   0.248   0.425  0.00  0.00    +0.000 N 
ATOM     16  H36 UNK     0       6.593   0.368   1.067  0.00  0.00    +0.000 HD
ATOM     17  C13 UNK     0       6.016   0.108  -0.989  0.00  0.00    +0.000 C 
ATOM     18  O4  UNK     0       5.182  -0.511  -1.703  0.00  0.00    +0.000 OA
BRANCH  17  19
ATOM     19  C10 UNK     0       7.256   0.643  -1.665  0.00  0.00    +0.000 C 
ATOM     20  C12 UNK     0       8.577   0.324  -0.982  0.00  0.00    +0.000 C 
ATOM     21  C11 UNK     0       8.031   1.746  -0.956  0.00  0.00    +0.000 C 
ENDBRANCH  17  19
ENDBRANCH  11  15
ENDBRANCH   7   9
BRANCH   5  22
ATOM     22  N7  UNK     0      -3.983   0.664  -0.489  0.00  0.00    +0.000 N 
ATOM     23  H43 UNK     0      -3.968   1.700  -0.630  0.00  0.00    +0.000 HD
BRANCH  22  24
ATOM     24  C21 UNK     0      -5.238  -0.018  -0.656  0.00  0.00    +0.000 A 
ATOM     25  C25 UNK     0      -6.434   0.667  -0.392  0.00  0.00    +0.000 A 
ATOM     26  C24 UNK     0      -7.678   0.031  -0.554  0.00  0.00    +0.000 A 
ATOM     27  C27 UNK     0      -7.713  -1.284  -1.046  0.00  0.00    +0.000 A 
ATOM     28  C28 UNK     0      -6.526  -1.963  -1.334  0.00  0.00    +0.000 A 
ATOM     29  C26 UNK     0      -5.294  -1.335  -1.143  0.00  0.00    +0.000 A 
BRANCH  26  30
ATOM     30  C29 UNK     0      -8.959   0.785  -0.299  0.00  0.00    +0.000 C 
ATOM     31  F1  UNK     0      -9.968  -0.080   0.086  0.00  0.00    +0.000 F 
ATOM     32  F2  UNK     0      -9.342   1.436  -1.457  0.00  0.00    +0.000 F 
ATOM     33  F3  UNK     0      -8.784   1.720   0.707  0.00  0.00    +0.000 F 
ENDBRANCH  26  30
ENDBRANCH  22  24
ENDBRANCH   5  22
TORSDOF 6
