REMARK  Name = C:\Users\Maximilian\Desktop\Conformers\converted_pdb\conformers_pdb\VGX_1027_conf_42.pdb
REMARK  6 active torsions:
REMARK  status: ('A' for Active; 'I' for Inactive)
REMARK    1  A    between atoms: C23_5  and  N7_22
REMARK    2  A    between atoms: N6_7  and  C17_9
REMARK    3  A    between atoms: C14_11  and  N5_15
REMARK    4  A    between atoms: C13_17  and  C10_19
REMARK    5  A    between atoms: N7_22  and  C21_24
REMARK    6  A    between atoms: C24_26  and  C29_30
REMARK                            x       y       z     vdW  Elec       q    Type
REMARK                         _______ _______ _______ _____ _____    ______ ____
ROOT
ATOM      1  N8  UNK     0      -1.302   2.902   0.505  0.00  0.00    +0.000 NA
ATOM      2  N9  UNK     0      -3.256   1.718  -0.054  0.00  0.00    +0.000 NA
ATOM      3  C20 UNK     0      -0.527   1.828   0.200  0.00  0.00    +0.000 A 
ATOM      4  C22 UNK     0      -1.140   0.638  -0.221  0.00  0.00    +0.000 A 
ATOM      5  C23 UNK     0      -2.533   0.602  -0.342  0.00  0.00    +0.000 A 
ATOM      6  C30 UNK     0      -2.653   2.856   0.373  0.00  0.00    +0.000 A 
ATOM      7  N6  UNK     0       0.895   1.917   0.383  0.00  0.00    +0.000 N 
ATOM      8  H41 UNK     0       1.247   2.582   1.108  0.00  0.00    +0.000 HD
ENDROOT
BRANCH   7   9
ATOM      9  C17 UNK     0       1.864   1.164  -0.367  0.00  0.00    +0.000 A 
ATOM     10  C15 UNK     0       3.073   0.799   0.242  0.00  0.00    +0.000 A 
ATOM     11  C14 UNK     0       4.054   0.089  -0.476  0.00  0.00    +0.000 A 
ATOM     12  C16 UNK     0       3.799  -0.268  -1.809  0.00  0.00    +0.000 A 
ATOM     13  C18 UNK     0       2.608   0.115  -2.428  0.00  0.00    +0.000 A 
ATOM     14  C19 UNK     0       1.648   0.838  -1.717  0.00  0.00    +0.000 A 
BRANCH  11  15
ATOM     15  N5  UNK     0       5.283  -0.326   0.143  0.00  0.00    +0.000 N 
ATOM     16  H36 UNK     0       5.754  -1.170  -0.252  0.00  0.00    +0.000 HD
ATOM     17  C13 UNK     0       5.952   0.434   1.169  0.00  0.00    +0.000 C 
ATOM     18  O4  UNK     0       5.702   1.662   1.297  0.00  0.00    +0.000 OA
BRANCH  17  19
ATOM     19  C10 UNK     0       6.984  -0.172   2.091  0.00  0.00    +0.000 C 
ATOM     20  C12 UNK     0       8.061  -1.013   1.424  0.00  0.00    +0.000 C 
ATOM     21  C11 UNK     0       6.980  -1.684   2.262  0.00  0.00    +0.000 C 
ENDBRANCH  17  19
ENDBRANCH  11  15
ENDBRANCH   7   9
BRANCH   5  22
ATOM     22  N7  UNK     0      -3.181  -0.592  -0.809  0.00  0.00    +0.000 N 
ATOM     23  H43 UNK     0      -2.602  -1.298  -1.319  0.00  0.00    +0.000 HD
BRANCH  22  24
ATOM     24  C21 UNK     0      -4.597  -0.824  -0.721  0.00  0.00    +0.000 A 
ATOM     25  C25 UNK     0      -5.340  -0.402   0.397  0.00  0.00    +0.000 A 
ATOM     26  C24 UNK     0      -6.719  -0.666   0.483  0.00  0.00    +0.000 A 
ATOM     27  C27 UNK     0      -7.354  -1.335  -0.578  0.00  0.00    +0.000 A 
ATOM     28  C28 UNK     0      -6.615  -1.778  -1.676  0.00  0.00    +0.000 A 
ATOM     29  C26 UNK     0      -5.242  -1.536  -1.742  0.00  0.00    +0.000 A 
BRANCH  26  30
ATOM     30  C29 UNK     0      -7.519  -0.159   1.658  0.00  0.00    +0.000 C 
ATOM     31  F1  UNK     0      -8.638  -0.947   1.868  0.00  0.00    +0.000 F 
ATOM     32  F2  UNK     0      -7.923   1.138   1.406  0.00  0.00    +0.000 F 
ATOM     33  F3  UNK     0      -6.754  -0.177   2.811  0.00  0.00    +0.000 F 
ENDBRANCH  26  30
ENDBRANCH  22  24
ENDBRANCH   5  22
TORSDOF 6
