REMARK  Name = C:\Users\Maximilian\Desktop\Conformers\converted_pdb\conformers_pdb\VGX_1027_conf_59.pdb
REMARK  6 active torsions:
REMARK  status: ('A' for Active; 'I' for Inactive)
REMARK    1  A    between atoms: C23_5  and  N7_22
REMARK    2  A    between atoms: N6_7  and  C17_9
REMARK    3  A    between atoms: C14_11  and  N5_15
REMARK    4  A    between atoms: C13_17  and  C10_19
REMARK    5  A    between atoms: N7_22  and  C21_24
REMARK    6  A    between atoms: C24_26  and  C29_30
REMARK                            x       y       z     vdW  Elec       q    Type
REMARK                         _______ _______ _______ _____ _____    ______ ____
ROOT
ATOM      1  N8  UNK     0       1.550  -3.104  -0.403  0.00  0.00    +0.000 NA
ATOM      2  N9  UNK     0       3.463  -1.736  -0.412  0.00  0.00    +0.000 NA
ATOM      3  C20 UNK     0       0.734  -2.017  -0.335  0.00  0.00    +0.000 A 
ATOM      4  C22 UNK     0       1.304  -0.737  -0.274  0.00  0.00    +0.000 A 
ATOM      5  C23 UNK     0       2.696  -0.615  -0.315  0.00  0.00    +0.000 A 
ATOM      6  C30 UNK     0       2.900  -2.970  -0.448  0.00  0.00    +0.000 A 
ATOM      7  N6  UNK     0      -0.687  -2.216  -0.250  0.00  0.00    +0.000 N 
ATOM      8  H41 UNK     0      -1.018  -3.116   0.168  0.00  0.00    +0.000 HD
ENDROOT
BRANCH   7   9
ATOM      9  C17 UNK     0      -1.678  -1.251  -0.635  0.00  0.00    +0.000 A 
ATOM     10  C15 UNK     0      -2.898  -1.203   0.057  0.00  0.00    +0.000 A 
ATOM     11  C14 UNK     0      -3.886  -0.271  -0.294  0.00  0.00    +0.000 A 
ATOM     12  C16 UNK     0      -3.662   0.589  -1.383  0.00  0.00    +0.000 A 
ATOM     13  C18 UNK     0      -2.464   0.523  -2.097  0.00  0.00    +0.000 A 
ATOM     14  C19 UNK     0      -1.478  -0.398  -1.732  0.00  0.00    +0.000 A 
BRANCH  11  15
ATOM     15  N5  UNK     0      -5.127  -0.252   0.428  0.00  0.00    +0.000 N 
ATOM     16  H36 UNK     0      -5.471  -1.147   0.843  0.00  0.00    +0.000 HD
ATOM     17  C13 UNK     0      -5.867   0.943   0.714  0.00  0.00    +0.000 C 
ATOM     18  O4  UNK     0      -5.336   2.077   0.565  0.00  0.00    +0.000 OA
BRANCH  17  19
ATOM     19  C10 UNK     0      -7.246   0.846   1.292  0.00  0.00    +0.000 C 
ATOM     20  C12 UNK     0      -8.261   0.164   0.388  0.00  0.00    +0.000 C 
ATOM     21  C11 UNK     0      -8.299   1.672   0.569  0.00  0.00    +0.000 C 
ENDBRANCH  17  19
ENDBRANCH  11  15
ENDBRANCH   7   9
BRANCH   5  22
ATOM     22  N7  UNK     0       3.303   0.687  -0.298  0.00  0.00    +0.000 N 
ATOM     23  H43 UNK     0       2.716   1.505  -0.580  0.00  0.00    +0.000 HD
BRANCH  22  24
ATOM     24  C21 UNK     0       4.695   0.919  -0.023  0.00  0.00    +0.000 A 
ATOM     25  C25 UNK     0       5.386   0.160   0.938  0.00  0.00    +0.000 A 
ATOM     26  C24 UNK     0       6.738   0.423   1.224  0.00  0.00    +0.000 A 
ATOM     27  C27 UNK     0       7.401   1.436   0.511  0.00  0.00    +0.000 A 
ATOM     28  C28 UNK     0       6.711   2.207  -0.427  0.00  0.00    +0.000 A 
ATOM     29  C26 UNK     0       5.362   1.959  -0.684  0.00  0.00    +0.000 A 
BRANCH  26  30
ATOM     30  C29 UNK     0       7.480  -0.428   2.224  0.00  0.00    +0.000 C 
ATOM     31  F1  UNK     0       6.648  -0.781   3.272  0.00  0.00    +0.000 F 
ATOM     32  F2  UNK     0       8.565   0.255   2.746  0.00  0.00    +0.000 F 
ATOM     33  F3  UNK     0       7.930  -1.575   1.599  0.00  0.00    +0.000 F 
ENDBRANCH  26  30
ENDBRANCH  22  24
ENDBRANCH   5  22
TORSDOF 6
