REMARK  Name = C:\Users\Maximilian\Desktop\Conformers\converted_pdb\conformers_pdb\VGX_1027_conf_78.pdb
REMARK  6 active torsions:
REMARK  status: ('A' for Active; 'I' for Inactive)
REMARK    1  A    between atoms: C23_5  and  N7_22
REMARK    2  A    between atoms: N6_7  and  C17_9
REMARK    3  A    between atoms: C14_11  and  N5_15
REMARK    4  A    between atoms: C13_17  and  C10_19
REMARK    5  A    between atoms: N7_22  and  C21_24
REMARK    6  A    between atoms: C24_26  and  C29_30
REMARK                            x       y       z     vdW  Elec       q    Type
REMARK                         _______ _______ _______ _____ _____    ______ ____
ROOT
ATOM      1  N8  UNK     0      -0.815  -0.800   0.949  0.00  0.00    +0.000 NA
ATOM      2  N9  UNK     0      -3.108  -0.375   0.643  0.00  0.00    +0.000 NA
ATOM      3  C20 UNK     0      -0.495   0.444   0.498  0.00  0.00    +0.000 A 
ATOM      4  C22 UNK     0      -1.516   1.308   0.088  0.00  0.00    +0.000 A 
ATOM      5  C23 UNK     0      -2.843   0.871   0.164  0.00  0.00    +0.000 A 
ATOM      6  C30 UNK     0      -2.107  -1.208   1.028  0.00  0.00    +0.000 A 
ATOM      7  N6  UNK     0       0.878   0.855   0.395  0.00  0.00    +0.000 N 
ATOM      8  H41 UNK     0       1.104   1.656  -0.237  0.00  0.00    +0.000 HD
ENDROOT
BRANCH   7   9
ATOM      9  C17 UNK     0       1.972   0.161   1.018  0.00  0.00    +0.000 A 
ATOM     10  C15 UNK     0       3.215   0.111   0.369  0.00  0.00    +0.000 A 
ATOM     11  C14 UNK     0       4.309  -0.546   0.962  0.00  0.00    +0.000 A 
ATOM     12  C16 UNK     0       4.159  -1.107   2.239  0.00  0.00    +0.000 A 
ATOM     13  C18 UNK     0       2.931  -1.040   2.901  0.00  0.00    +0.000 A 
ATOM     14  C19 UNK     0       1.842  -0.408   2.297  0.00  0.00    +0.000 A 
BRANCH  11  15
ATOM     15  N5  UNK     0       5.591  -0.601   0.313  0.00  0.00    +0.000 N 
ATOM     16  H36 UNK     0       6.432  -0.687   0.926  0.00  0.00    +0.000 HD
ATOM     17  C13 UNK     0       5.754  -0.687  -1.116  0.00  0.00    +0.000 C 
ATOM     18  O4  UNK     0       4.795  -1.087  -1.829  0.00  0.00    +0.000 OA
BRANCH  17  19
ATOM     19  C10 UNK     0       7.051  -0.350  -1.812  0.00  0.00    +0.000 C 
ATOM     20  C12 UNK     0       8.306  -0.964  -1.210  0.00  0.00    +0.000 C 
ATOM     21  C11 UNK     0       8.046   0.530  -1.069  0.00  0.00    +0.000 C 
ENDBRANCH  17  19
ENDBRANCH  11  15
ENDBRANCH   7   9
BRANCH   5  22
ATOM     22  N7  UNK     0      -3.912   1.753  -0.216  0.00  0.00    +0.000 N 
ATOM     23  H43 UNK     0      -3.709   2.777  -0.267  0.00  0.00    +0.000 HD
BRANCH  22  24
ATOM     24  C21 UNK     0      -5.271   1.328  -0.414  0.00  0.00    +0.000 A 
ATOM     25  C25 UNK     0      -5.571   0.092  -1.016  0.00  0.00    +0.000 A 
ATOM     26  C24 UNK     0      -6.906  -0.296  -1.232  0.00  0.00    +0.000 A 
ATOM     27  C27 UNK     0      -7.941   0.556  -0.810  0.00  0.00    +0.000 A 
ATOM     28  C28 UNK     0      -7.647   1.795  -0.236  0.00  0.00    +0.000 A 
ATOM     29  C26 UNK     0      -6.319   2.184  -0.050  0.00  0.00    +0.000 A 
BRANCH  26  30
ATOM     30  C29 UNK     0      -7.216  -1.646  -1.827  0.00  0.00    +0.000 C 
ATOM     31  F1  UNK     0      -6.270  -1.985  -2.780  0.00  0.00    +0.000 F 
ATOM     32  F2  UNK     0      -8.460  -1.645  -2.435  0.00  0.00    +0.000 F 
ATOM     33  F3  UNK     0      -7.206  -2.598  -0.824  0.00  0.00    +0.000 F 
ENDBRANCH  26  30
ENDBRANCH  22  24
ENDBRANCH   5  22
TORSDOF 6
