REMARK  Name = C:\Users\Maximilian\Desktop\Conformers\converted_pdb\conformers_pdb\VGX_1027_conf_12.pdb
REMARK  6 active torsions:
REMARK  status: ('A' for Active; 'I' for Inactive)
REMARK    1  A    between atoms: C23_5  and  N7_22
REMARK    2  A    between atoms: N6_7  and  C17_9
REMARK    3  A    between atoms: C14_11  and  N5_15
REMARK    4  A    between atoms: C13_17  and  C10_19
REMARK    5  A    between atoms: N7_22  and  C21_24
REMARK    6  A    between atoms: C24_26  and  C29_30
REMARK                            x       y       z     vdW  Elec       q    Type
REMARK                         _______ _______ _______ _____ _____    ______ ____
ROOT
ATOM      1  N8  UNK     0       0.677  -2.648   1.281  0.00  0.00    +0.000 NA
ATOM      2  N9  UNK     0       2.981  -3.017   1.579  0.00  0.00    +0.000 NA
ATOM      3  C20 UNK     0       0.922  -1.707   0.329  0.00  0.00    +0.000 A 
ATOM      4  C22 UNK     0       2.244  -1.394  -0.002  0.00  0.00    +0.000 A 
ATOM      5  C23 UNK     0       3.285  -2.064   0.659  0.00  0.00    +0.000 A 
ATOM      6  C30 UNK     0       1.693  -3.306   1.897  0.00  0.00    +0.000 A 
ATOM      7  N6  UNK     0      -0.161  -1.005  -0.303  0.00  0.00    +0.000 N 
ATOM      8  H41 UNK     0       0.053  -0.096  -0.773  0.00  0.00    +0.000 HD
ENDROOT
BRANCH   7   9
ATOM      9  C17 UNK     0      -1.537  -1.415  -0.232  0.00  0.00    +0.000 A 
ATOM     10  C15 UNK     0      -2.545  -0.439  -0.194  0.00  0.00    +0.000 A 
ATOM     11  C14 UNK     0      -3.902  -0.809  -0.152  0.00  0.00    +0.000 A 
ATOM     12  C16 UNK     0      -4.239  -2.171  -0.129  0.00  0.00    +0.000 A 
ATOM     13  C18 UNK     0      -3.241  -3.146  -0.192  0.00  0.00    +0.000 A 
ATOM     14  C19 UNK     0      -1.897  -2.774  -0.255  0.00  0.00    +0.000 A 
BRANCH  11  15
ATOM     15  N5  UNK     0      -4.946   0.178  -0.076  0.00  0.00    +0.000 N 
ATOM     16  H36 UNK     0      -5.843  -0.112   0.372  0.00  0.00    +0.000 HD
ATOM     17  C13 UNK     0      -4.861   1.473  -0.701  0.00  0.00    +0.000 C 
ATOM     18  O4  UNK     0      -4.049   1.656  -1.648  0.00  0.00    +0.000 OA
BRANCH  17  19
ATOM     19  C10 UNK     0      -5.738   2.634  -0.295  0.00  0.00    +0.000 C 
ATOM     20  C12 UNK     0      -6.378   2.588   1.085  0.00  0.00    +0.000 C 
ATOM     21  C11 UNK     0      -7.222   2.331  -0.158  0.00  0.00    +0.000 C 
ENDBRANCH  17  19
ENDBRANCH  11  15
ENDBRANCH   7   9
BRANCH   5  22
ATOM     22  N7  UNK     0       4.662  -1.814   0.339  0.00  0.00    +0.000 N 
ATOM     23  H43 UNK     0       5.337  -2.602   0.465  0.00  0.00    +0.000 HD
BRANCH  22  24
ATOM     24  C21 UNK     0       5.175  -0.558  -0.138  0.00  0.00    +0.000 A 
ATOM     25  C25 UNK     0       4.637   0.665   0.303  0.00  0.00    +0.000 A 
ATOM     26  C24 UNK     0       5.170   1.887  -0.145  0.00  0.00    +0.000 A 
ATOM     27  C27 UNK     0       6.234   1.872  -1.063  0.00  0.00    +0.000 A 
ATOM     28  C28 UNK     0       6.788   0.660  -1.482  0.00  0.00    +0.000 A 
ATOM     29  C26 UNK     0       6.270  -0.549  -1.012  0.00  0.00    +0.000 A 
BRANCH  26  30
ATOM     30  C29 UNK     0       4.546   3.191   0.284  0.00  0.00    +0.000 C 
ATOM     31  F1  UNK     0       3.492   3.490  -0.559  0.00  0.00    +0.000 F 
ATOM     32  F2  UNK     0       5.470   4.220   0.233  0.00  0.00    +0.000 F 
ATOM     33  F3  UNK     0       4.073   3.100   1.582  0.00  0.00    +0.000 F 
ENDBRANCH  26  30
ENDBRANCH  22  24
ENDBRANCH   5  22
TORSDOF 6
