REMARK  Name = C:\Users\Maximilian\Desktop\Conformers\converted_pdb\conformers_pdb\VGX_1027_conf_61.pdb
REMARK  6 active torsions:
REMARK  status: ('A' for Active; 'I' for Inactive)
REMARK    1  A    between atoms: C23_5  and  N7_22
REMARK    2  A    between atoms: N6_7  and  C17_9
REMARK    3  A    between atoms: C14_11  and  N5_15
REMARK    4  A    between atoms: C13_17  and  C10_19
REMARK    5  A    between atoms: N7_22  and  C21_24
REMARK    6  A    between atoms: C24_26  and  C29_30
REMARK                            x       y       z     vdW  Elec       q    Type
REMARK                         _______ _______ _______ _____ _____    ______ ____
ROOT
ATOM      1  N8  UNK     0       1.114   0.535  -2.803  0.00  0.00    +0.000 NA
ATOM      2  N9  UNK     0       3.162   0.038  -1.757  0.00  0.00    +0.000 NA
ATOM      3  C20 UNK     0       0.426   0.224  -1.672  0.00  0.00    +0.000 A 
ATOM      4  C22 UNK     0       1.133  -0.164  -0.524  0.00  0.00    +0.000 A 
ATOM      5  C23 UNK     0       2.528  -0.253  -0.588  0.00  0.00    +0.000 A 
ATOM      6  C30 UNK     0       2.467   0.438  -2.852  0.00  0.00    +0.000 A 
ATOM      7  N6  UNK     0      -1.004   0.360  -1.664  0.00  0.00    +0.000 N 
ATOM      8  H41 UNK     0      -1.423   1.072  -2.305  0.00  0.00    +0.000 HD
ENDROOT
BRANCH   7   9
ATOM      9  C17 UNK     0      -1.898  -0.439  -0.868  0.00  0.00    +0.000 A 
ATOM     10  C15 UNK     0      -3.129   0.101  -0.464  0.00  0.00    +0.000 A 
ATOM     11  C14 UNK     0      -4.038  -0.666   0.288  0.00  0.00    +0.000 A 
ATOM     12  C16 UNK     0      -3.689  -1.974   0.654  0.00  0.00    +0.000 A 
ATOM     13  C18 UNK     0      -2.478  -2.526   0.234  0.00  0.00    +0.000 A 
ATOM     14  C19 UNK     0      -1.591  -1.771  -0.537  0.00  0.00    +0.000 A 
BRANCH  11  15
ATOM     15  N5  UNK     0      -5.289  -0.118   0.738  0.00  0.00    +0.000 N 
ATOM     16  H36 UNK     0      -5.700  -0.525   1.607  0.00  0.00    +0.000 HD
ATOM     17  C13 UNK     0      -6.061   0.832  -0.024  0.00  0.00    +0.000 C 
ATOM     18  O4  UNK     0      -5.838   0.969  -1.257  0.00  0.00    +0.000 OA
BRANCH  17  19
ATOM     19  C10 UNK     0      -7.165   1.664   0.586  0.00  0.00    +0.000 C 
ATOM     20  C12 UNK     0      -7.126   1.891   2.091  0.00  0.00    +0.000 C 
ATOM     21  C11 UNK     0      -8.141   0.926   1.490  0.00  0.00    +0.000 C 
ENDBRANCH  17  19
ENDBRANCH  11  15
ENDBRANCH   7   9
BRANCH   5  22
ATOM     22  N7  UNK     0       3.271  -0.693   0.561  0.00  0.00    +0.000 N 
ATOM     23  H43 UNK     0       2.750  -1.187   1.320  0.00  0.00    +0.000 HD
BRANCH  22  24
ATOM     24  C21 UNK     0       4.703  -0.623   0.670  0.00  0.00    +0.000 A 
ATOM     25  C25 UNK     0       5.425   0.470   0.156  0.00  0.00    +0.000 A 
ATOM     26  C24 UNK     0       6.825   0.528   0.283  0.00  0.00    +0.000 A 
ATOM     27  C27 UNK     0       7.500  -0.532   0.913  0.00  0.00    +0.000 A 
ATOM     28  C28 UNK     0       6.782  -1.602   1.454  0.00  0.00    +0.000 A 
ATOM     29  C26 UNK     0       5.391  -1.642   1.344  0.00  0.00    +0.000 A 
BRANCH  26  30
ATOM     30  C29 UNK     0       7.590   1.675  -0.330  0.00  0.00    +0.000 C 
ATOM     31  F1  UNK     0       8.841   1.807   0.248  0.00  0.00    +0.000 F 
ATOM     32  F2  UNK     0       6.902   2.863  -0.149  0.00  0.00    +0.000 F 
ATOM     33  F3  UNK     0       7.745   1.446  -1.685  0.00  0.00    +0.000 F 
ENDBRANCH  26  30
ENDBRANCH  22  24
ENDBRANCH   5  22
TORSDOF 6
