REMARK  Name = C:\Users\Maximilian\Desktop\Conformers\converted_pdb\conformers_pdb\VGX_1027_conf_39.pdb
REMARK  6 active torsions:
REMARK  status: ('A' for Active; 'I' for Inactive)
REMARK    1  A    between atoms: C23_5  and  N7_22
REMARK    2  A    between atoms: N6_7  and  C17_9
REMARK    3  A    between atoms: C14_11  and  N5_15
REMARK    4  A    between atoms: C13_17  and  C10_19
REMARK    5  A    between atoms: N7_22  and  C21_24
REMARK    6  A    between atoms: C24_26  and  C29_30
REMARK                            x       y       z     vdW  Elec       q    Type
REMARK                         _______ _______ _______ _____ _____    ______ ____
ROOT
ATOM      1  N8  UNK     0      -0.529  -1.356   0.163  0.00  0.00    +0.000 NA
ATOM      2  N9  UNK     0      -2.876  -1.302   0.303  0.00  0.00    +0.000 NA
ATOM      3  C20 UNK     0      -0.486  -0.025  -0.121  0.00  0.00    +0.000 A 
ATOM      4  C22 UNK     0      -1.681   0.701  -0.181  0.00  0.00    +0.000 A 
ATOM      5  C23 UNK     0      -2.891   0.030   0.023  0.00  0.00    +0.000 A 
ATOM      6  C30 UNK     0      -1.709  -1.993   0.370  0.00  0.00    +0.000 A 
ATOM      7  N6  UNK     0       0.771   0.645  -0.306  0.00  0.00    +0.000 N 
ATOM      8  H41 UNK     0       0.793   1.685  -0.197  0.00  0.00    +0.000 HD
ENDROOT
BRANCH   7   9
ATOM      9  C17 UNK     0       2.020  -0.034  -0.521  0.00  0.00    +0.000 A 
ATOM     10  C15 UNK     0       3.202   0.519  -0.005  0.00  0.00    +0.000 A 
ATOM     11  C14 UNK     0       4.440  -0.112  -0.206  0.00  0.00    +0.000 A 
ATOM     12  C16 UNK     0       4.492  -1.285  -0.980  0.00  0.00    +0.000 A 
ATOM     13  C18 UNK     0       3.323  -1.826  -1.518  0.00  0.00    +0.000 A 
ATOM     14  C19 UNK     0       2.092  -1.205  -1.294  0.00  0.00    +0.000 A 
BRANCH  11  15
ATOM     15  N5  UNK     0       5.633   0.485   0.330  0.00  0.00    +0.000 N 
ATOM     16  H36 UNK     0       5.613   1.514   0.505  0.00  0.00    +0.000 HD
ATOM     17  C13 UNK     0       6.779  -0.276   0.760  0.00  0.00    +0.000 C 
ATOM     18  O4  UNK     0       6.647  -1.499   1.036  0.00  0.00    +0.000 OA
BRANCH  17  19
ATOM     19  C10 UNK     0       8.148   0.337   0.933  0.00  0.00    +0.000 C 
ATOM     20  C12 UNK     0       8.198   1.645   1.708  0.00  0.00    +0.000 C 
ATOM     21  C11 UNK     0       8.437   1.642   0.203  0.00  0.00    +0.000 C 
ENDBRANCH  17  19
ENDBRANCH  11  15
ENDBRANCH   7   9
BRANCH   5  22
ATOM     22  N7  UNK     0      -4.130   0.757  -0.013  0.00  0.00    +0.000 N 
ATOM     23  H43 UNK     0      -4.091   1.797   0.093  0.00  0.00    +0.000 HD
BRANCH  22  24
ATOM     24  C21 UNK     0      -5.426   0.136  -0.073  0.00  0.00    +0.000 A 
ATOM     25  C25 UNK     0      -6.511   0.742   0.579  0.00  0.00    +0.000 A 
ATOM     26  C24 UNK     0      -7.793   0.167   0.530  0.00  0.00    +0.000 A 
ATOM     27  C27 UNK     0      -7.990  -0.996  -0.235  0.00  0.00    +0.000 A 
ATOM     28  C28 UNK     0      -6.919  -1.589  -0.906  0.00  0.00    +0.000 A 
ATOM     29  C26 UNK     0      -5.643  -1.028  -0.830  0.00  0.00    +0.000 A 
BRANCH  26  30
ATOM     30  C29 UNK     0      -8.959   0.844   1.205  0.00  0.00    +0.000 C 
ATOM     31  F1  UNK     0      -8.545   1.505   2.348  0.00  0.00    +0.000 F 
ATOM     32  F2  UNK     0      -9.921  -0.083   1.567  0.00  0.00    +0.000 F 
ATOM     33  F3  UNK     0      -9.520   1.759   0.334  0.00  0.00    +0.000 F 
ENDBRANCH  26  30
ENDBRANCH  22  24
ENDBRANCH   5  22
TORSDOF 6
