REMARK  Name = C:\Users\Maximilian\Desktop\Conformers\converted_pdb\conformers_pdb\VGX_1027_conf_24.pdb
REMARK  6 active torsions:
REMARK  status: ('A' for Active; 'I' for Inactive)
REMARK    1  A    between atoms: C23_5  and  N7_22
REMARK    2  A    between atoms: N6_7  and  C17_9
REMARK    3  A    between atoms: C14_11  and  N5_15
REMARK    4  A    between atoms: C13_17  and  C10_19
REMARK    5  A    between atoms: N7_22  and  C21_24
REMARK    6  A    between atoms: C24_26  and  C29_30
REMARK                            x       y       z     vdW  Elec       q    Type
REMARK                         _______ _______ _______ _____ _____    ______ ____
ROOT
ATOM      1  N8  UNK     0      -0.711   1.148  -2.249  0.00  0.00    +0.000 NA
ATOM      2  N9  UNK     0      -2.868   2.013  -2.615  0.00  0.00    +0.000 NA
ATOM      3  C20 UNK     0      -1.013   0.863  -0.953  0.00  0.00    +0.000 A 
ATOM      4  C22 UNK     0      -2.285   1.176  -0.460  0.00  0.00    +0.000 A 
ATOM      5  C23 UNK     0      -3.228   1.742  -1.332  0.00  0.00    +0.000 A 
ATOM      6  C30 UNK     0      -1.626   1.715  -3.076  0.00  0.00    +0.000 A 
ATOM      7  N6  UNK     0      -0.022   0.301  -0.076  0.00  0.00    +0.000 N 
ATOM      8  H41 UNK     0      -0.180   0.381   0.956  0.00  0.00    +0.000 HD
ENDROOT
BRANCH   7   9
ATOM      9  C17 UNK     0       1.244  -0.216  -0.521  0.00  0.00    +0.000 A 
ATOM     10  C15 UNK     0       2.381  -0.042   0.284  0.00  0.00    +0.000 A 
ATOM     11  C14 UNK     0       3.633  -0.523  -0.128  0.00  0.00    +0.000 A 
ATOM     12  C16 UNK     0       3.732  -1.234  -1.335  0.00  0.00    +0.000 A 
ATOM     13  C18 UNK     0       2.598  -1.444  -2.123  0.00  0.00    +0.000 A 
ATOM     14  C19 UNK     0       1.358  -0.942  -1.719  0.00  0.00    +0.000 A 
BRANCH  11  15
ATOM     15  N5  UNK     0       4.777  -0.328   0.719  0.00  0.00    +0.000 N 
ATOM     16  H36 UNK     0       4.626  -0.276   1.752  0.00  0.00    +0.000 HD
ATOM     17  C13 UNK     0       6.101  -0.084   0.223  0.00  0.00    +0.000 C 
ATOM     18  O4  UNK     0       6.285   0.241  -0.981  0.00  0.00    +0.000 OA
BRANCH  17  19
ATOM     19  C10 UNK     0       7.267  -0.115   1.165  0.00  0.00    +0.000 C 
ATOM     20  C12 UNK     0       8.425  -0.998   0.726  0.00  0.00    +0.000 C 
ATOM     21  C11 UNK     0       7.497  -1.462   1.836  0.00  0.00    +0.000 C 
ENDBRANCH  17  19
ENDBRANCH  11  15
ENDBRANCH   7   9
BRANCH   5  22
ATOM     22  N7  UNK     0      -4.540   2.113  -0.881  0.00  0.00    +0.000 N 
ATOM     23  H43 UNK     0      -4.995   2.929  -1.349  0.00  0.00    +0.000 HD
BRANCH  22  24
ATOM     24  C21 UNK     0      -5.265   1.442   0.165  0.00  0.00    +0.000 A 
ATOM     25  C25 UNK     0      -5.127   0.058   0.378  0.00  0.00    +0.000 A 
ATOM     26  C24 UNK     0      -5.851  -0.585   1.398  0.00  0.00    +0.000 A 
ATOM     27  C27 UNK     0      -6.764   0.160   2.164  0.00  0.00    +0.000 A 
ATOM     28  C28 UNK     0      -6.925   1.529   1.935  0.00  0.00    +0.000 A 
ATOM     29  C26 UNK     0      -6.183   2.166   0.939  0.00  0.00    +0.000 A 
BRANCH  26  30
ATOM     30  C29 UNK     0      -5.729  -2.075   1.601  0.00  0.00    +0.000 C 
ATOM     31  F1  UNK     0      -4.473  -2.521   1.230  0.00  0.00    +0.000 F 
ATOM     32  F2  UNK     0      -6.680  -2.718   0.832  0.00  0.00    +0.000 F 
ATOM     33  F3  UNK     0      -5.928  -2.403   2.931  0.00  0.00    +0.000 F 
ENDBRANCH  26  30
ENDBRANCH  22  24
ENDBRANCH   5  22
TORSDOF 6
