REMARK  Name = C:\Users\Maximilian\Desktop\Conformers\converted_pdb\conformers_pdb\VGX_1027_conf_30.pdb
REMARK  6 active torsions:
REMARK  status: ('A' for Active; 'I' for Inactive)
REMARK    1  A    between atoms: C23_5  and  N7_22
REMARK    2  A    between atoms: N6_7  and  C17_9
REMARK    3  A    between atoms: C14_11  and  N5_15
REMARK    4  A    between atoms: C13_17  and  C10_19
REMARK    5  A    between atoms: N7_22  and  C21_24
REMARK    6  A    between atoms: C24_26  and  C29_30
REMARK                            x       y       z     vdW  Elec       q    Type
REMARK                         _______ _______ _______ _____ _____    ______ ____
ROOT
ATOM      1  N8  UNK     0      -0.121   0.847   1.004  0.00  0.00    +0.000 NA
ATOM      2  N9  UNK     0       2.120   0.135   0.981  0.00  0.00    +0.000 NA
ATOM      3  C20 UNK     0       0.191   1.950   0.271  0.00  0.00    +0.000 A 
ATOM      4  C22 UNK     0       1.520   2.167  -0.109  0.00  0.00    +0.000 A 
ATOM      5  C23 UNK     0       2.488   1.221   0.248  0.00  0.00    +0.000 A 
ATOM      6  C30 UNK     0       0.829  -0.057   1.354  0.00  0.00    +0.000 A 
ATOM      7  N6  UNK     0      -0.819   2.916  -0.067  0.00  0.00    +0.000 N 
ATOM      8  H41 UNK     0      -0.509   3.880  -0.324  0.00  0.00    +0.000 HD
ENDROOT
BRANCH   7   9
ATOM      9  C17 UNK     0      -2.232   2.669   0.033  0.00  0.00    +0.000 A 
ATOM     10  C15 UNK     0      -2.780   1.414  -0.287  0.00  0.00    +0.000 A 
ATOM     11  C14 UNK     0      -4.169   1.198  -0.207  0.00  0.00    +0.000 A 
ATOM     12  C16 UNK     0      -5.001   2.246   0.214  0.00  0.00    +0.000 A 
ATOM     13  C18 UNK     0      -4.463   3.501   0.506  0.00  0.00    +0.000 A 
ATOM     14  C19 UNK     0      -3.087   3.716   0.405  0.00  0.00    +0.000 A 
BRANCH  11  15
ATOM     15  N5  UNK     0      -4.745  -0.087  -0.499  0.00  0.00    +0.000 N 
ATOM     16  H36 UNK     0      -5.648  -0.321  -0.032  0.00  0.00    +0.000 HD
ATOM     17  C13 UNK     0      -4.216  -0.988  -1.491  0.00  0.00    +0.000 C 
ATOM     18  O4  UNK     0      -3.482  -0.539  -2.413  0.00  0.00    +0.000 OA
BRANCH  17  19
ATOM     19  C10 UNK     0      -4.530  -2.465  -1.502  0.00  0.00    +0.000 C 
ATOM     20  C12 UNK     0      -5.997  -2.834  -1.346  0.00  0.00    +0.000 C 
ATOM     21  C11 UNK     0      -5.021  -3.093  -0.205  0.00  0.00    +0.000 C 
ENDBRANCH  17  19
ENDBRANCH  11  15
ENDBRANCH   7   9
BRANCH   5  22
ATOM     22  N7  UNK     0       3.863   1.430  -0.114  0.00  0.00    +0.000 N 
ATOM     23  H43 UNK     0       4.160   2.398  -0.375  0.00  0.00    +0.000 HD
BRANCH  22  24
ATOM     24  C21 UNK     0       4.878   0.416  -0.029  0.00  0.00    +0.000 A 
ATOM     25  C25 UNK     0       4.601  -0.926  -0.347  0.00  0.00    +0.000 A 
ATOM     26  C24 UNK     0       5.613  -1.901  -0.292  0.00  0.00    +0.000 A 
ATOM     27  C27 UNK     0       6.904  -1.522   0.115  0.00  0.00    +0.000 A 
ATOM     28  C28 UNK     0       7.189  -0.186   0.406  0.00  0.00    +0.000 A 
ATOM     29  C26 UNK     0       6.185   0.780   0.323  0.00  0.00    +0.000 A 
BRANCH  26  30
ATOM     30  C29 UNK     0       5.293  -3.346  -0.579  0.00  0.00    +0.000 C 
ATOM     31  F1  UNK     0       6.419  -4.024  -1.015  0.00  0.00    +0.000 F 
ATOM     32  F2  UNK     0       4.323  -3.444  -1.561  0.00  0.00    +0.000 F 
ATOM     33  F3  UNK     0       4.827  -3.946   0.576  0.00  0.00    +0.000 F 
ENDBRANCH  26  30
ENDBRANCH  22  24
ENDBRANCH   5  22
TORSDOF 6
