REMARK  Name = C:\Users\Maximilian\Desktop\Conformers\converted_pdb\conformers_pdb\VGX_1027_conf_54.pdb
REMARK  6 active torsions:
REMARK  status: ('A' for Active; 'I' for Inactive)
REMARK    1  A    between atoms: C23_5  and  N7_22
REMARK    2  A    between atoms: N6_7  and  C17_9
REMARK    3  A    between atoms: C14_11  and  N5_15
REMARK    4  A    between atoms: C13_17  and  C10_19
REMARK    5  A    between atoms: N7_22  and  C21_24
REMARK    6  A    between atoms: C24_26  and  C29_30
REMARK                            x       y       z     vdW  Elec       q    Type
REMARK                         _______ _______ _______ _____ _____    ______ ____
ROOT
ATOM      1  N8  UNK     0      -0.827   0.793   0.705  0.00  0.00    +0.000 NA
ATOM      2  N9  UNK     0      -3.148   0.444   0.851  0.00  0.00    +0.000 NA
ATOM      3  C20 UNK     0      -0.614  -0.531   0.468  0.00  0.00    +0.000 A 
ATOM      4  C22 UNK     0      -1.708  -1.400   0.402  0.00  0.00    +0.000 A 
ATOM      5  C23 UNK     0      -2.994  -0.884   0.594  0.00  0.00    +0.000 A 
ATOM      6  C30 UNK     0      -2.079   1.279   0.901  0.00  0.00    +0.000 A 
ATOM      7  N6  UNK     0       0.714  -1.029   0.236  0.00  0.00    +0.000 N 
ATOM      8  H41 UNK     0       0.814  -1.951  -0.247  0.00  0.00    +0.000 HD
ENDROOT
BRANCH   7   9
ATOM      9  C17 UNK     0       1.912  -0.289   0.525  0.00  0.00    +0.000 A 
ATOM     10  C15 UNK     0       3.033  -0.441  -0.306  0.00  0.00    +0.000 A 
ATOM     11  C14 UNK     0       4.220   0.260  -0.047  0.00  0.00    +0.000 A 
ATOM     12  C16 UNK     0       4.296   1.082   1.091  0.00  0.00    +0.000 A 
ATOM     13  C18 UNK     0       3.193   1.218   1.937  0.00  0.00    +0.000 A 
ATOM     14  C19 UNK     0       2.007   0.535   1.659  0.00  0.00    +0.000 A 
BRANCH  11  15
ATOM     15  N5  UNK     0       5.351   0.075  -0.916  0.00  0.00    +0.000 N 
ATOM     16  H36 UNK     0       5.433  -0.830  -1.432  0.00  0.00    +0.000 HD
ATOM     17  C13 UNK     0       6.326   1.091  -1.196  0.00  0.00    +0.000 C 
ATOM     18  O4  UNK     0       6.096   2.298  -0.912  0.00  0.00    +0.000 OA
BRANCH  17  19
ATOM     19  C10 UNK     0       7.587   0.736  -1.922  0.00  0.00    +0.000 C 
ATOM     20  C12 UNK     0       8.444  -0.309  -1.223  0.00  0.00    +0.000 C 
ATOM     21  C11 UNK     0       8.868   1.149  -1.212  0.00  0.00    +0.000 C 
ENDBRANCH  17  19
ENDBRANCH  11  15
ENDBRANCH   7   9
BRANCH   5  22
ATOM     22  N7  UNK     0      -4.132  -1.762   0.567  0.00  0.00    +0.000 N 
ATOM     23  H43 UNK     0      -3.964  -2.786   0.691  0.00  0.00    +0.000 HD
BRANCH  22  24
ATOM     24  C21 UNK     0      -5.494  -1.309   0.495  0.00  0.00    +0.000 A 
ATOM     25  C25 UNK     0      -5.854  -0.192  -0.282  0.00  0.00    +0.000 A 
ATOM     26  C24 UNK     0      -7.193   0.233  -0.350  0.00  0.00    +0.000 A 
ATOM     27  C27 UNK     0      -8.180  -0.510   0.319  0.00  0.00    +0.000 A 
ATOM     28  C28 UNK     0      -7.830  -1.634   1.070  0.00  0.00    +0.000 A 
ATOM     29  C26 UNK     0      -6.496  -2.034   1.155  0.00  0.00    +0.000 A 
BRANCH  26  30
ATOM     30  C29 UNK     0      -7.576   1.406  -1.217  0.00  0.00    +0.000 C 
ATOM     31  F1  UNK     0      -8.714   2.025  -0.730  0.00  0.00    +0.000 F 
ATOM     32  F2  UNK     0      -7.820   0.961  -2.503  0.00  0.00    +0.000 F 
ATOM     33  F3  UNK     0      -6.556   2.342  -1.249  0.00  0.00    +0.000 F 
ENDBRANCH  26  30
ENDBRANCH  22  24
ENDBRANCH   5  22
TORSDOF 6
