REMARK  Name = C:\Users\Maximilian\Desktop\Conformers\converted_pdb\conformers_pdb\VGX_1027_conf_1.pdb
REMARK  6 active torsions:
REMARK  status: ('A' for Active; 'I' for Inactive)
REMARK    1  A    between atoms: C23_5  and  N7_22
REMARK    2  A    between atoms: N6_7  and  C17_9
REMARK    3  A    between atoms: C14_11  and  N5_15
REMARK    4  A    between atoms: C13_17  and  C10_19
REMARK    5  A    between atoms: N7_22  and  C21_24
REMARK    6  A    between atoms: C24_26  and  C29_30
REMARK                            x       y       z     vdW  Elec       q    Type
REMARK                         _______ _______ _______ _____ _____    ______ ____
ROOT
ATOM      1  N8  UNK     0      -0.641  -1.172  -0.160  0.00  0.00    +0.000 NA
ATOM      2  N9  UNK     0      -2.944  -1.025   0.305  0.00  0.00    +0.000 NA
ATOM      3  C20 UNK     0      -0.533   0.184  -0.199  0.00  0.00    +0.000 A 
ATOM      4  C22 UNK     0      -1.667   0.969   0.041  0.00  0.00    +0.000 A 
ATOM      5  C23 UNK     0      -2.887   0.334   0.300  0.00  0.00    +0.000 A 
ATOM      6  C30 UNK     0      -1.833  -1.775   0.086  0.00  0.00    +0.000 A 
ATOM      7  N6  UNK     0       0.737   0.813  -0.437  0.00  0.00    +0.000 N 
ATOM      8  H41 UNK     0       0.852   1.809  -0.143  0.00  0.00    +0.000 HD
ENDROOT
BRANCH   7   9
ATOM      9  C17 UNK     0       1.888   0.132  -0.964  0.00  0.00    +0.000 A 
ATOM     10  C15 UNK     0       3.169   0.521  -0.544  0.00  0.00    +0.000 A 
ATOM     11  C14 UNK     0       4.316  -0.110  -1.050  0.00  0.00    +0.000 A 
ATOM     12  C16 UNK     0       4.172  -1.103  -2.035  0.00  0.00    +0.000 A 
ATOM     13  C18 UNK     0       2.901  -1.480  -2.473  0.00  0.00    +0.000 A 
ATOM     14  C19 UNK     0       1.762  -0.868  -1.943  0.00  0.00    +0.000 A 
BRANCH  11  15
ATOM     15  N5  UNK     0       5.611   0.315  -0.591  0.00  0.00    +0.000 N 
ATOM     16  H36 UNK     0       5.710   1.300  -0.251  0.00  0.00    +0.000 HD
ATOM     17  C13 UNK     0       6.751  -0.548  -0.452  0.00  0.00    +0.000 C 
ATOM     18  O4  UNK     0       6.644  -1.793  -0.616  0.00  0.00    +0.000 OA
BRANCH  17  19
ATOM     19  C10 UNK     0       8.086   0.041  -0.106  0.00  0.00    +0.000 C 
ATOM     20  C12 UNK     0       8.893  -0.718   0.940  0.00  0.00    +0.000 C 
ATOM     21  C11 UNK     0       8.175   0.566   1.321  0.00  0.00    +0.000 C 
ENDBRANCH  17  19
ENDBRANCH  11  15
ENDBRANCH   7   9
BRANCH   5  22
ATOM     22  N7  UNK     0      -4.073   1.118   0.510  0.00  0.00    +0.000 N 
ATOM     23  H43 UNK     0      -4.067   2.113   0.186  0.00  0.00    +0.000 HD
BRANCH  22  24
ATOM     24  C21 UNK     0      -5.304   0.593   1.038  0.00  0.00    +0.000 A 
ATOM     25  C25 UNK     0      -6.525   1.109   0.578  0.00  0.00    +0.000 A 
ATOM     26  C24 UNK     0      -7.746   0.649   1.102  0.00  0.00    +0.000 A 
ATOM     27  C27 UNK     0      -7.730  -0.360   2.081  0.00  0.00    +0.000 A 
ATOM     28  C28 UNK     0      -6.518  -0.861   2.561  0.00  0.00    +0.000 A 
ATOM     29  C26 UNK     0      -5.308  -0.384   2.049  0.00  0.00    +0.000 A 
BRANCH  26  30
ATOM     30  C29 UNK     0      -9.050   1.162   0.545  0.00  0.00    +0.000 C 
ATOM     31  F1  UNK     0      -9.363   0.458  -0.602  0.00  0.00    +0.000 F 
ATOM     32  F2  UNK     0      -8.946   2.506   0.233  0.00  0.00    +0.000 F 
ATOM     33  F3  UNK     0     -10.076   1.009   1.461  0.00  0.00    +0.000 F 
ENDBRANCH  26  30
ENDBRANCH  22  24
ENDBRANCH   5  22
TORSDOF 6
