REMARK  Name = C:\Users\Maximilian\Desktop\Conformers\converted_pdb\conformers_pdb\VGX_1027_conf_14.pdb
REMARK  6 active torsions:
REMARK  status: ('A' for Active; 'I' for Inactive)
REMARK    1  A    between atoms: C23_5  and  N7_22
REMARK    2  A    between atoms: N6_7  and  C17_9
REMARK    3  A    between atoms: C14_11  and  N5_15
REMARK    4  A    between atoms: C13_17  and  C10_19
REMARK    5  A    between atoms: N7_22  and  C21_24
REMARK    6  A    between atoms: C24_26  and  C29_30
REMARK                            x       y       z     vdW  Elec       q    Type
REMARK                         _______ _______ _______ _____ _____    ______ ____
ROOT
ATOM      1  N8  UNK     0      -0.829   0.825  -1.069  0.00  0.00    +0.000 NA
ATOM      2  N9  UNK     0      -3.162   0.831  -0.764  0.00  0.00    +0.000 NA
ATOM      3  C20 UNK     0      -0.630   0.495   0.236  0.00  0.00    +0.000 A 
ATOM      4  C22 UNK     0      -1.737   0.310   1.072  0.00  0.00    +0.000 A 
ATOM      5  C23 UNK     0      -3.021   0.477   0.542  0.00  0.00    +0.000 A 
ATOM      6  C30 UNK     0      -2.080   0.998  -1.568  0.00  0.00    +0.000 A 
ATOM      7  N6  UNK     0       0.697   0.290   0.747  0.00  0.00    +0.000 N 
ATOM      8  H41 UNK     0       0.800  -0.246   1.639  0.00  0.00    +0.000 HD
ENDROOT
BRANCH   7   9
ATOM      9  C17 UNK     0       1.897   0.658   0.046  0.00  0.00    +0.000 A 
ATOM     10  C15 UNK     0       3.042  -0.142   0.176  0.00  0.00    +0.000 A 
ATOM     11  C14 UNK     0       4.240   0.205  -0.467  0.00  0.00    +0.000 A 
ATOM     12  C16 UNK     0       4.277   1.358  -1.269  0.00  0.00    +0.000 A 
ATOM     13  C18 UNK     0       3.148   2.174  -1.382  0.00  0.00    +0.000 A 
ATOM     14  C19 UNK     0       1.967   1.835  -0.718  0.00  0.00    +0.000 A 
BRANCH  11  15
ATOM     15  N5  UNK     0       5.383  -0.659  -0.338  0.00  0.00    +0.000 N 
ATOM     16  H36 UNK     0       5.209  -1.677  -0.177  0.00  0.00    +0.000 HD
ATOM     17  C13 UNK     0       6.744  -0.201  -0.293  0.00  0.00    +0.000 C 
ATOM     18  O4  UNK     0       7.010   1.030  -0.249  0.00  0.00    +0.000 OA
BRANCH  17  19
ATOM     19  C10 UNK     0       7.865  -1.197  -0.312  0.00  0.00    +0.000 C 
ATOM     20  C12 UNK     0       7.923  -2.098   0.914  0.00  0.00    +0.000 C 
ATOM     21  C11 UNK     0       8.940  -0.983   0.744  0.00  0.00    +0.000 C 
ENDBRANCH  17  19
ENDBRANCH  11  15
ENDBRANCH   7   9
BRANCH   5  22
ATOM     22  N7  UNK     0      -4.172   0.322   1.389  0.00  0.00    +0.000 N 
ATOM     23  H43 UNK     0      -4.029   0.366   2.424  0.00  0.00    +0.000 HD
BRANCH  22  24
ATOM     24  C21 UNK     0      -5.522   0.214   0.903  0.00  0.00    +0.000 A 
ATOM     25  C25 UNK     0      -5.819  -0.469  -0.291  0.00  0.00    +0.000 A 
ATOM     26  C24 UNK     0      -7.145  -0.565  -0.751  0.00  0.00    +0.000 A 
ATOM     27  C27 UNK     0      -8.181  -0.030   0.035  0.00  0.00    +0.000 A 
ATOM     28  C28 UNK     0      -7.892   0.623   1.234  0.00  0.00    +0.000 A 
ATOM     29  C26 UNK     0      -6.570   0.744   1.668  0.00  0.00    +0.000 A 
BRANCH  26  30
ATOM     30  C29 UNK     0      -7.461  -1.323  -2.015  0.00  0.00    +0.000 C 
ATOM     31  F1  UNK     0      -8.596  -0.811  -2.620  0.00  0.00    +0.000 F 
ATOM     32  F2  UNK     0      -7.675  -2.653  -1.709  0.00  0.00    +0.000 F 
ATOM     33  F3  UNK     0      -6.414  -1.230  -2.915  0.00  0.00    +0.000 F 
ENDBRANCH  26  30
ENDBRANCH  22  24
ENDBRANCH   5  22
TORSDOF 6
