REMARK  Name = C:\Users\Maximilian\Desktop\Conformers\converted_pdb\conformers_pdb\VGX_1027_conf_15.pdb
REMARK  6 active torsions:
REMARK  status: ('A' for Active; 'I' for Inactive)
REMARK    1  A    between atoms: C23_5  and  N7_22
REMARK    2  A    between atoms: N6_7  and  C17_9
REMARK    3  A    between atoms: C14_11  and  N5_15
REMARK    4  A    between atoms: C13_17  and  C10_19
REMARK    5  A    between atoms: N7_22  and  C21_24
REMARK    6  A    between atoms: C24_26  and  C29_30
REMARK                            x       y       z     vdW  Elec       q    Type
REMARK                         _______ _______ _______ _____ _____    ______ ____
ROOT
ATOM      1  N8  UNK     0       0.775   0.094  -0.888  0.00  0.00    +0.000 NA
ATOM      2  N9  UNK     0       3.099  -0.264  -0.867  0.00  0.00    +0.000 NA
ATOM      3  C20 UNK     0       0.665  -0.353   0.393  0.00  0.00    +0.000 A 
ATOM      4  C22 UNK     0       1.812  -0.787   1.067  0.00  0.00    +0.000 A 
ATOM      5  C23 UNK     0       3.047  -0.720   0.414  0.00  0.00    +0.000 A 
ATOM      6  C30 UNK     0       1.978   0.143  -1.515  0.00  0.00    +0.000 A 
ATOM      7  N6  UNK     0      -0.618  -0.432   1.035  0.00  0.00    +0.000 N 
ATOM      8  H41 UNK     0      -0.714  -1.062   1.864  0.00  0.00    +0.000 HD
ENDROOT
BRANCH   7   9
ATOM      9  C17 UNK     0      -1.804   0.215   0.543  0.00  0.00    +0.000 A 
ATOM     10  C15 UNK     0      -3.050  -0.406   0.720  0.00  0.00    +0.000 A 
ATOM     11  C14 UNK     0      -4.229   0.203   0.261  0.00  0.00    +0.000 A 
ATOM     12  C16 UNK     0      -4.156   1.475  -0.335  0.00  0.00    +0.000 A 
ATOM     13  C18 UNK     0      -2.921   2.109  -0.491  0.00  0.00    +0.000 A 
ATOM     14  C19 UNK     0      -1.750   1.486  -0.053  0.00  0.00    +0.000 A 
BRANCH  11  15
ATOM     15  N5  UNK     0      -5.489  -0.458   0.466  0.00  0.00    +0.000 N 
ATOM     16  H36 UNK     0      -5.573  -1.120   1.271  0.00  0.00    +0.000 HD
ATOM     17  C13 UNK     0      -6.613  -0.342  -0.420  0.00  0.00    +0.000 C 
ATOM     18  O4  UNK     0      -6.471   0.127  -1.581  0.00  0.00    +0.000 OA
BRANCH  17  19
ATOM     19  C10 UNK     0      -7.950  -0.874  -0.003  0.00  0.00    +0.000 C 
ATOM     20  C12 UNK     0      -9.087   0.134  -0.079  0.00  0.00    +0.000 C 
ATOM     21  C11 UNK     0      -8.507  -0.254   1.270  0.00  0.00    +0.000 C 
ENDBRANCH  17  19
ENDBRANCH  11  15
ENDBRANCH   7   9
BRANCH   5  22
ATOM     22  N7  UNK     0       4.236  -1.178   1.078  0.00  0.00    +0.000 N 
ATOM     23  H43 UNK     0       4.125  -1.806   1.907  0.00  0.00    +0.000 HD
BRANCH  22  24
ATOM     24  C21 UNK     0       5.570  -0.918   0.608  0.00  0.00    +0.000 A 
ATOM     25  C25 UNK     0       5.910   0.312   0.016  0.00  0.00    +0.000 A 
ATOM     26  C24 UNK     0       7.221   0.555  -0.431  0.00  0.00    +0.000 A 
ATOM     27  C27 UNK     0       8.207  -0.425  -0.221  0.00  0.00    +0.000 A 
ATOM     28  C28 UNK     0       7.879  -1.637   0.390  0.00  0.00    +0.000 A 
ATOM     29  C26 UNK     0       6.568  -1.882   0.805  0.00  0.00    +0.000 A 
BRANCH  26  30
ATOM     30  C29 UNK     0       7.587   1.891  -1.029  0.00  0.00    +0.000 C 
ATOM     31  F1  UNK     0       7.939   2.762  -0.015  0.00  0.00    +0.000 F 
ATOM     32  F2  UNK     0       6.516   2.421  -1.728  0.00  0.00    +0.000 F 
ATOM     33  F3  UNK     0       8.652   1.762  -1.903  0.00  0.00    +0.000 F 
ENDBRANCH  26  30
ENDBRANCH  22  24
ENDBRANCH   5  22
TORSDOF 6
