REMARK  Name = C:\Users\Maximilian\Desktop\Conformers\converted_pdb\conformers_pdb\VGX_1027_conf_52.pdb
REMARK  6 active torsions:
REMARK  status: ('A' for Active; 'I' for Inactive)
REMARK    1  A    between atoms: C23_5  and  N7_22
REMARK    2  A    between atoms: N6_7  and  C17_9
REMARK    3  A    between atoms: C14_11  and  N5_15
REMARK    4  A    between atoms: C13_17  and  C10_19
REMARK    5  A    between atoms: N7_22  and  C21_24
REMARK    6  A    between atoms: C24_26  and  C29_30
REMARK                            x       y       z     vdW  Elec       q    Type
REMARK                         _______ _______ _______ _____ _____    ______ ____
ROOT
ATOM      1  N8  UNK     0      -0.541   1.092  -0.368  0.00  0.00    +0.000 NA
ATOM      2  N9  UNK     0      -2.881   1.047  -0.602  0.00  0.00    +0.000 NA
ATOM      3  C20 UNK     0      -0.563  -0.059   0.359  0.00  0.00    +0.000 A 
ATOM      4  C22 UNK     0      -1.787  -0.691   0.604  0.00  0.00    +0.000 A 
ATOM      5  C23 UNK     0      -2.961  -0.104   0.119  0.00  0.00    +0.000 A 
ATOM      6  C30 UNK     0      -1.687   1.645  -0.843  0.00  0.00    +0.000 A 
ATOM      7  N6  UNK     0       0.658  -0.653   0.827  0.00  0.00    +0.000 N 
ATOM      8  H41 UNK     0       0.643  -1.666   1.086  0.00  0.00    +0.000 HD
ENDROOT
BRANCH   7   9
ATOM      9  C17 UNK     0       1.924   0.028   0.857  0.00  0.00    +0.000 A 
ATOM     10  C15 UNK     0       3.102  -0.697   0.619  0.00  0.00    +0.000 A 
ATOM     11  C14 UNK     0       4.356  -0.071   0.675  0.00  0.00    +0.000 A 
ATOM     12  C16 UNK     0       4.423   1.306   0.953  0.00  0.00    +0.000 A 
ATOM     13  C18 UNK     0       3.256   2.028   1.215  0.00  0.00    +0.000 A 
ATOM     14  C19 UNK     0       2.013   1.393   1.179  0.00  0.00    +0.000 A 
BRANCH  11  15
ATOM     15  N5  UNK     0       5.539  -0.836   0.388  0.00  0.00    +0.000 N 
ATOM     16  H36 UNK     0       5.448  -1.670  -0.236  0.00  0.00    +0.000 HD
ATOM     17  C13 UNK     0       6.824  -0.585   0.977  0.00  0.00    +0.000 C 
ATOM     18  O4  UNK     0       6.931   0.145   1.999  0.00  0.00    +0.000 OA
BRANCH  17  19
ATOM     19  C10 UNK     0       8.041  -1.273   0.437  0.00  0.00    +0.000 C 
ATOM     20  C12 UNK     0       9.176  -0.340   0.043  0.00  0.00    +0.000 C 
ATOM     21  C11 UNK     0       8.324  -0.994  -1.031  0.00  0.00    +0.000 C 
ENDBRANCH  17  19
ENDBRANCH  11  15
ENDBRANCH   7   9
BRANCH   5  22
ATOM     22  N7  UNK     0      -4.228  -0.745   0.339  0.00  0.00    +0.000 N 
ATOM     23  H43 UNK     0      -4.226  -1.758   0.600  0.00  0.00    +0.000 HD
BRANCH  22  24
ATOM     24  C21 UNK     0      -5.499  -0.113   0.114  0.00  0.00    +0.000 A 
ATOM     25  C25 UNK     0      -6.580  -0.882  -0.345  0.00  0.00    +0.000 A 
ATOM     26  C24 UNK     0      -7.839  -0.295  -0.565  0.00  0.00    +0.000 A 
ATOM     27  C27 UNK     0      -8.021   1.064  -0.259  0.00  0.00    +0.000 A 
ATOM     28  C28 UNK     0      -6.956   1.829   0.221  0.00  0.00    +0.000 A 
ATOM     29  C26 UNK     0      -5.701   1.246   0.410  0.00  0.00    +0.000 A 
BRANCH  26  30
ATOM     30  C29 UNK     0      -9.003  -1.137  -1.025  0.00  0.00    +0.000 C 
ATOM     31  F1  UNK     0      -9.907  -0.372  -1.741  0.00  0.00    +0.000 F 
ATOM     32  F2  UNK     0      -9.640  -1.674   0.078  0.00  0.00    +0.000 F 
ATOM     33  F3  UNK     0      -8.568  -2.167  -1.841  0.00  0.00    +0.000 F 
ENDBRANCH  26  30
ENDBRANCH  22  24
ENDBRANCH   5  22
TORSDOF 6
