REMARK  Name = C:\Users\Maximilian\Desktop\Conformers\converted_pdb\conformers_pdb\VGX_1027_conf_33.pdb
REMARK  6 active torsions:
REMARK  status: ('A' for Active; 'I' for Inactive)
REMARK    1  A    between atoms: C23_5  and  N7_22
REMARK    2  A    between atoms: N6_7  and  C17_9
REMARK    3  A    between atoms: C14_11  and  N5_15
REMARK    4  A    between atoms: C13_17  and  C10_19
REMARK    5  A    between atoms: N7_22  and  C21_24
REMARK    6  A    between atoms: C24_26  and  C29_30
REMARK                            x       y       z     vdW  Elec       q    Type
REMARK                         _______ _______ _______ _____ _____    ______ ____
ROOT
ATOM      1  N8  UNK     0       0.477  -2.647  -1.160  0.00  0.00    +0.000 NA
ATOM      2  N9  UNK     0       2.765  -2.909  -1.637  0.00  0.00    +0.000 NA
ATOM      3  C20 UNK     0       0.730  -1.543  -0.406  0.00  0.00    +0.000 A 
ATOM      4  C22 UNK     0       2.047  -1.090  -0.274  0.00  0.00    +0.000 A 
ATOM      5  C23 UNK     0       3.073  -1.794  -0.922  0.00  0.00    +0.000 A 
ATOM      6  C30 UNK     0       1.481  -3.331  -1.764  0.00  0.00    +0.000 A 
ATOM      7  N6  UNK     0      -0.344  -0.817   0.215  0.00  0.00    +0.000 N 
ATOM      8  H41 UNK     0      -0.163   0.172   0.504  0.00  0.00    +0.000 HD
ENDROOT
BRANCH   7   9
ATOM      9  C17 UNK     0      -1.681  -1.325   0.357  0.00  0.00    +0.000 A 
ATOM     10  C15 UNK     0      -2.766  -0.439   0.275  0.00  0.00    +0.000 A 
ATOM     11  C14 UNK     0      -4.086  -0.903   0.429  0.00  0.00    +0.000 A 
ATOM     12  C16 UNK     0      -4.304  -2.258   0.718  0.00  0.00    +0.000 A 
ATOM     13  C18 UNK     0      -3.227  -3.141   0.824  0.00  0.00    +0.000 A 
ATOM     14  C19 UNK     0      -1.921  -2.679   0.648  0.00  0.00    +0.000 A 
BRANCH  11  15
ATOM     15  N5  UNK     0      -5.209  -0.007   0.356  0.00  0.00    +0.000 N 
ATOM     16  H36 UNK     0      -6.069  -0.279   0.880  0.00  0.00    +0.000 HD
ATOM     17  C13 UNK     0      -5.247   1.149  -0.503  0.00  0.00    +0.000 C 
ATOM     18  O4  UNK     0      -4.470   1.216  -1.493  0.00  0.00    +0.000 OA
BRANCH  17  19
ATOM     19  C10 UNK     0      -6.214   2.290  -0.293  0.00  0.00    +0.000 C 
ATOM     20  C12 UNK     0      -6.825   2.454   1.092  0.00  0.00    +0.000 C 
ATOM     21  C11 UNK     0      -7.664   1.898  -0.052  0.00  0.00    +0.000 C 
ENDBRANCH  17  19
ENDBRANCH  11  15
ENDBRANCH   7   9
BRANCH   5  22
ATOM     22  N7  UNK     0       4.449  -1.403  -0.794  0.00  0.00    +0.000 N 
ATOM     23  H43 UNK     0       5.172  -2.156  -0.859  0.00  0.00    +0.000 HD
BRANCH  22  24
ATOM     24  C21 UNK     0       4.900  -0.053  -0.591  0.00  0.00    +0.000 A 
ATOM     25  C25 UNK     0       6.073   0.179   0.142  0.00  0.00    +0.000 A 
ATOM     26  C24 UNK     0       6.561   1.486   0.325  0.00  0.00    +0.000 A 
ATOM     27  C27 UNK     0       5.840   2.565  -0.213  0.00  0.00    +0.000 A 
ATOM     28  C28 UNK     0       4.685   2.338  -0.965  0.00  0.00    +0.000 A 
ATOM     29  C26 UNK     0       4.222   1.036  -1.166  0.00  0.00    +0.000 A 
BRANCH  26  30
ATOM     30  C29 UNK     0       7.787   1.731   1.169  0.00  0.00    +0.000 C 
ATOM     31  F1  UNK     0       7.409   1.864   2.492  0.00  0.00    +0.000 F 
ATOM     32  F2  UNK     0       8.437   2.885   0.767  0.00  0.00    +0.000 F 
ATOM     33  F3  UNK     0       8.674   0.674   1.058  0.00  0.00    +0.000 F 
ENDBRANCH  26  30
ENDBRANCH  22  24
ENDBRANCH   5  22
TORSDOF 6
