REMARK  Name = C:\Users\Maximilian\Desktop\Conformers\converted_pdb\conformers_pdb\VGX_1027_conf_13.pdb
REMARK  6 active torsions:
REMARK  status: ('A' for Active; 'I' for Inactive)
REMARK    1  A    between atoms: C23_5  and  N7_22
REMARK    2  A    between atoms: N6_7  and  C17_9
REMARK    3  A    between atoms: C14_11  and  N5_15
REMARK    4  A    between atoms: C13_17  and  C10_19
REMARK    5  A    between atoms: N7_22  and  C21_24
REMARK    6  A    between atoms: C24_26  and  C29_30
REMARK                            x       y       z     vdW  Elec       q    Type
REMARK                         _______ _______ _______ _____ _____    ______ ____
ROOT
ATOM      1  N8  UNK     0       0.494  -2.690   0.737  0.00  0.00    +0.000 NA
ATOM      2  N9  UNK     0       2.661  -2.908   1.624  0.00  0.00    +0.000 NA
ATOM      3  C20 UNK     0       0.712  -1.378   0.447  0.00  0.00    +0.000 A 
ATOM      4  C22 UNK     0       1.944  -0.801   0.771  0.00  0.00    +0.000 A 
ATOM      5  C23 UNK     0       2.938  -1.605   1.350  0.00  0.00    +0.000 A 
ATOM      6  C30 UNK     0       1.456  -3.452   1.317  0.00  0.00    +0.000 A 
ATOM      7  N6  UNK     0      -0.329  -0.572  -0.129  0.00  0.00    +0.000 N 
ATOM      8  H41 UNK     0      -0.254   0.467  -0.035  0.00  0.00    +0.000 HD
ENDROOT
BRANCH   7   9
ATOM      9  C17 UNK     0      -1.519  -1.106  -0.734  0.00  0.00    +0.000 A 
ATOM     10  C15 UNK     0      -2.725  -0.398  -0.621  0.00  0.00    +0.000 A 
ATOM     11  C14 UNK     0      -3.901  -0.880  -1.226  0.00  0.00    +0.000 A 
ATOM     12  C16 UNK     0      -3.859  -2.093  -1.930  0.00  0.00    +0.000 A 
ATOM     13  C18 UNK     0      -2.656  -2.789  -2.068  0.00  0.00    +0.000 A 
ATOM     14  C19 UNK     0      -1.488  -2.295  -1.483  0.00  0.00    +0.000 A 
BRANCH  11  15
ATOM     15  N5  UNK     0      -5.153  -0.186  -1.090  0.00  0.00    +0.000 N 
ATOM     16  H36 UNK     0      -6.024  -0.756  -1.162  0.00  0.00    +0.000 HD
ATOM     17  C13 UNK     0      -5.260   1.248  -1.001  0.00  0.00    +0.000 C 
ATOM     18  O4  UNK     0      -4.314   1.970  -1.416  0.00  0.00    +0.000 OA
BRANCH  17  19
ATOM     19  C10 UNK     0      -6.487   1.943  -0.459  0.00  0.00    +0.000 C 
ATOM     20  C12 UNK     0      -7.419   1.137   0.434  0.00  0.00    +0.000 C 
ATOM     21  C11 UNK     0      -7.822   1.455  -1.000  0.00  0.00    +0.000 C 
ENDBRANCH  17  19
ENDBRANCH  11  15
ENDBRANCH   7   9
BRANCH   5  22
ATOM     22  N7  UNK     0       4.215  -1.067   1.726  0.00  0.00    +0.000 N 
ATOM     23  H43 UNK     0       4.706  -1.512   2.534  0.00  0.00    +0.000 HD
BRANCH  22  24
ATOM     24  C21 UNK     0       4.865   0.032   1.065  0.00  0.00    +0.000 A 
ATOM     25  C25 UNK     0       5.701   0.884   1.803  0.00  0.00    +0.000 A 
ATOM     26  C24 UNK     0       6.361   1.959   1.183  0.00  0.00    +0.000 A 
ATOM     27  C27 UNK     0       6.224   2.135  -0.205  0.00  0.00    +0.000 A 
ATOM     28  C28 UNK     0       5.413   1.276  -0.949  0.00  0.00    +0.000 A 
ATOM     29  C26 UNK     0       4.738   0.227  -0.321  0.00  0.00    +0.000 A 
BRANCH  26  30
ATOM     30  C29 UNK     0       7.285   2.848   1.978  0.00  0.00    +0.000 C 
ATOM     31  F1  UNK     0       6.839   2.973   3.282  0.00  0.00    +0.000 F 
ATOM     32  F2  UNK     0       7.347   4.113   1.420  0.00  0.00    +0.000 F 
ATOM     33  F3  UNK     0       8.552   2.297   1.986  0.00  0.00    +0.000 F 
ENDBRANCH  26  30
ENDBRANCH  22  24
ENDBRANCH   5  22
TORSDOF 6
