REMARK  Name = C:\Users\Maximilian\Desktop\Conformers\converted_pdb\conformers_pdb\VGX_1027_conf_81.pdb
REMARK  6 active torsions:
REMARK  status: ('A' for Active; 'I' for Inactive)
REMARK    1  A    between atoms: C23_5  and  N7_22
REMARK    2  A    between atoms: N6_7  and  C17_9
REMARK    3  A    between atoms: C14_11  and  N5_15
REMARK    4  A    between atoms: C13_17  and  C10_19
REMARK    5  A    between atoms: N7_22  and  C21_24
REMARK    6  A    between atoms: C24_26  and  C29_30
REMARK                            x       y       z     vdW  Elec       q    Type
REMARK                         _______ _______ _______ _____ _____    ______ ____
ROOT
ATOM      1  N8  UNK     0      -1.492   1.030  -2.689  0.00  0.00    +0.000 NA
ATOM      2  N9  UNK     0      -3.406   0.342  -1.507  0.00  0.00    +0.000 NA
ATOM      3  C20 UNK     0      -0.679   0.579  -1.698  0.00  0.00    +0.000 A 
ATOM      4  C22 UNK     0      -1.250   0.012  -0.549  0.00  0.00    +0.000 A 
ATOM      5  C23 UNK     0      -2.643  -0.099  -0.470  0.00  0.00    +0.000 A 
ATOM      6  C30 UNK     0      -2.842   0.909  -2.604  0.00  0.00    +0.000 A 
ATOM      7  N6  UNK     0       0.741   0.756  -1.822  0.00  0.00    +0.000 N 
ATOM      8  H41 UNK     0       1.077   1.560  -2.400  0.00  0.00    +0.000 HD
ENDROOT
BRANCH   7   9
ATOM      9  C17 UNK     0       1.727  -0.097  -1.216  0.00  0.00    +0.000 A 
ATOM     10  C15 UNK     0       2.963   0.443  -0.832  0.00  0.00    +0.000 A 
ATOM     11  C14 UNK     0       3.961  -0.371  -0.274  0.00  0.00    +0.000 A 
ATOM     12  C16 UNK     0       3.702  -1.740  -0.085  0.00  0.00    +0.000 A 
ATOM     13  C18 UNK     0       2.482  -2.288  -0.487  0.00  0.00    +0.000 A 
ATOM     14  C19 UNK     0       1.502  -1.476  -1.062  0.00  0.00    +0.000 A 
BRANCH  11  15
ATOM     15  N5  UNK     0       5.204   0.221   0.144  0.00  0.00    +0.000 N 
ATOM     16  H36 UNK     0       5.191   1.238   0.379  0.00  0.00    +0.000 HD
ATOM     17  C13 UNK     0       6.465  -0.475   0.116  0.00  0.00    +0.000 C 
ATOM     18  O4  UNK     0       6.601  -1.488  -0.621  0.00  0.00    +0.000 OA
BRANCH  17  19
ATOM     19  C10 UNK     0       7.665  -0.023   0.915  0.00  0.00    +0.000 C 
ATOM     20  C12 UNK     0       7.416   0.882   2.113  0.00  0.00    +0.000 C 
ATOM     21  C11 UNK     0       8.000   1.458   0.829  0.00  0.00    +0.000 C 
ENDBRANCH  17  19
ENDBRANCH  11  15
ENDBRANCH   7   9
BRANCH   5  22
ATOM     22  N7  UNK     0      -3.250  -0.712   0.678  0.00  0.00    +0.000 N 
ATOM     23  H43 UNK     0      -2.652  -1.318   1.285  0.00  0.00    +0.000 HD
BRANCH  22  24
ATOM     24  C21 UNK     0      -4.653  -0.638   0.981  0.00  0.00    +0.000 A 
ATOM     25  C25 UNK     0      -5.392   0.536   0.743  0.00  0.00    +0.000 A 
ATOM     26  C24 UNK     0      -6.757   0.604   1.077  0.00  0.00    +0.000 A 
ATOM     27  C27 UNK     0      -7.384  -0.528   1.625  0.00  0.00    +0.000 A 
ATOM     28  C28 UNK     0      -6.647  -1.685   1.886  0.00  0.00    +0.000 A 
ATOM     29  C26 UNK     0      -5.287  -1.736   1.578  0.00  0.00    +0.000 A 
BRANCH  26  30
ATOM     30  C29 UNK     0      -7.553   1.847   0.767  0.00  0.00    +0.000 C 
ATOM     31  F1  UNK     0      -6.769   2.978   0.919  0.00  0.00    +0.000 F 
ATOM     32  F2  UNK     0      -8.642   1.960   1.615  0.00  0.00    +0.000 F 
ATOM     33  F3  UNK     0      -8.004   1.785  -0.538  0.00  0.00    +0.000 F 
ENDBRANCH  26  30
ENDBRANCH  22  24
ENDBRANCH   5  22
TORSDOF 6
