REMARK  Name = C:\Users\Maximilian\Desktop\Conformers\converted_pdb\conformers_pdb\VGX_1027_conf_28.pdb
REMARK  6 active torsions:
REMARK  status: ('A' for Active; 'I' for Inactive)
REMARK    1  A    between atoms: C23_5  and  N7_22
REMARK    2  A    between atoms: N6_7  and  C17_9
REMARK    3  A    between atoms: C14_11  and  N5_15
REMARK    4  A    between atoms: C13_17  and  C10_19
REMARK    5  A    between atoms: N7_22  and  C21_24
REMARK    6  A    between atoms: C24_26  and  C29_30
REMARK                            x       y       z     vdW  Elec       q    Type
REMARK                         _______ _______ _______ _____ _____    ______ ____
ROOT
ATOM      1  N8  UNK     0       0.172   1.595  -0.328  0.00  0.00    +0.000 NA
ATOM      2  N9  UNK     0      -1.656   2.479   0.860  0.00  0.00    +0.000 NA
ATOM      3  C20 UNK     0      -0.513   0.449  -0.588  0.00  0.00    +0.000 A 
ATOM      4  C22 UNK     0      -1.826   0.315  -0.123  0.00  0.00    +0.000 A 
ATOM      5  C23 UNK     0      -2.398   1.369   0.604  0.00  0.00    +0.000 A 
ATOM      6  C30 UNK     0      -0.386   2.600   0.395  0.00  0.00    +0.000 A 
ATOM      7  N6  UNK     0       0.082  -0.601  -1.368  0.00  0.00    +0.000 N 
ATOM      8  H41 UNK     0      -0.554  -1.300  -1.815  0.00  0.00    +0.000 HD
ENDROOT
BRANCH   7   9
ATOM      9  C17 UNK     0       1.486  -0.683  -1.667  0.00  0.00    +0.000 A 
ATOM     10  C15 UNK     0       2.458  -0.311  -0.721  0.00  0.00    +0.000 A 
ATOM     11  C14 UNK     0       3.826  -0.406  -1.023  0.00  0.00    +0.000 A 
ATOM     12  C16 UNK     0       4.218  -0.927  -2.269  0.00  0.00    +0.000 A 
ATOM     13  C18 UNK     0       3.256  -1.322  -3.201  0.00  0.00    +0.000 A 
ATOM     14  C19 UNK     0       1.897  -1.204  -2.901  0.00  0.00    +0.000 A 
BRANCH  11  15
ATOM     15  N5  UNK     0       4.797  -0.033  -0.029  0.00  0.00    +0.000 N 
ATOM     16  H36 UNK     0       4.497  -0.075   0.969  0.00  0.00    +0.000 HD
ATOM     17  C13 UNK     0       6.088   0.521  -0.349  0.00  0.00    +0.000 C 
ATOM     18  O4  UNK     0       6.279   1.044  -1.480  0.00  0.00    +0.000 OA
BRANCH  17  19
ATOM     19  C10 UNK     0       7.235   0.537   0.633  0.00  0.00    +0.000 C 
ATOM     20  C12 UNK     0       7.190  -0.450   1.790  0.00  0.00    +0.000 C 
ATOM     21  C11 UNK     0       6.904   1.026   2.035  0.00  0.00    +0.000 C 
ENDBRANCH  17  19
ENDBRANCH  11  15
ENDBRANCH   7   9
BRANCH   5  22
ATOM     22  N7  UNK     0      -3.727   1.278   1.142  0.00  0.00    +0.000 N 
ATOM     23  H43 UNK     0      -3.929   1.809   2.019  0.00  0.00    +0.000 HD
BRANCH  22  24
ATOM     24  C21 UNK     0      -4.794   0.513   0.555  0.00  0.00    +0.000 A 
ATOM     25  C25 UNK     0      -5.776  -0.048   1.385  0.00  0.00    +0.000 A 
ATOM     26  C24 UNK     0      -6.841  -0.789   0.841  0.00  0.00    +0.000 A 
ATOM     27  C27 UNK     0      -6.946  -0.908  -0.556  0.00  0.00    +0.000 A 
ATOM     28  C28 UNK     0      -5.984  -0.330  -1.388  0.00  0.00    +0.000 A 
ATOM     29  C26 UNK     0      -4.915   0.380  -0.838  0.00  0.00    +0.000 A 
BRANCH  26  30
ATOM     30  C29 UNK     0      -7.910  -1.359   1.738  0.00  0.00    +0.000 C 
ATOM     31  F1  UNK     0      -8.480  -2.485   1.168  0.00  0.00    +0.000 F 
ATOM     32  F2  UNK     0      -8.894  -0.408   1.936  0.00  0.00    +0.000 F 
ATOM     33  F3  UNK     0      -7.378  -1.719   2.964  0.00  0.00    +0.000 F 
ENDBRANCH  26  30
ENDBRANCH  22  24
ENDBRANCH   5  22
TORSDOF 6
