REMARK  Name = C:\Users\Maximilian\Desktop\Conformers\converted_pdb\conformers_pdb\VGX_1027_conf_63.pdb
REMARK  6 active torsions:
REMARK  status: ('A' for Active; 'I' for Inactive)
REMARK    1  A    between atoms: C23_5  and  N7_22
REMARK    2  A    between atoms: N6_7  and  C17_9
REMARK    3  A    between atoms: C14_11  and  N5_15
REMARK    4  A    between atoms: C13_17  and  C10_19
REMARK    5  A    between atoms: N7_22  and  C21_24
REMARK    6  A    between atoms: C24_26  and  C29_30
REMARK                            x       y       z     vdW  Elec       q    Type
REMARK                         _______ _______ _______ _____ _____    ______ ____
ROOT
ATOM      1  N8  UNK     0       0.645   0.549   1.130  0.00  0.00    +0.000 NA
ATOM      2  N9  UNK     0       2.961   0.148   1.035  0.00  0.00    +0.000 NA
ATOM      3  C20 UNK     0       0.495   0.159  -0.165  0.00  0.00    +0.000 A 
ATOM      4  C22 UNK     0       1.616  -0.269  -0.886  0.00  0.00    +0.000 A 
ATOM      5  C23 UNK     0       2.868  -0.252  -0.262  0.00  0.00    +0.000 A 
ATOM      6  C30 UNK     0       1.865   0.549   1.728  0.00  0.00    +0.000 A 
ATOM      7  N6  UNK     0      -0.805   0.131  -0.776  0.00  0.00    +0.000 N 
ATOM      8  H41 UNK     0      -0.934  -0.462  -1.627  0.00  0.00    +0.000 HD
ENDROOT
BRANCH   7   9
ATOM      9  C17 UNK     0      -1.965   0.780  -0.229  0.00  0.00    +0.000 A 
ATOM     10  C15 UNK     0      -3.227   0.190  -0.397  0.00  0.00    +0.000 A 
ATOM     11  C14 UNK     0      -4.385   0.815   0.095  0.00  0.00    +0.000 A 
ATOM     12  C16 UNK     0      -4.265   2.037   0.779  0.00  0.00    +0.000 A 
ATOM     13  C18 UNK     0      -3.015   2.641   0.928  0.00  0.00    +0.000 A 
ATOM     14  C19 UNK     0      -1.870   2.024   0.418  0.00  0.00    +0.000 A 
BRANCH  11  15
ATOM     15  N5  UNK     0      -5.658   0.165  -0.062  0.00  0.00    +0.000 N 
ATOM     16  H36 UNK     0      -5.653  -0.873  -0.172  0.00  0.00    +0.000 HD
ATOM     17  C13 UNK     0      -6.901   0.878  -0.211  0.00  0.00    +0.000 C 
ATOM     18  O4  UNK     0      -6.888   2.081  -0.588  0.00  0.00    +0.000 OA
BRANCH  17  19
ATOM     19  C10 UNK     0      -8.246   0.235   0.033  0.00  0.00    +0.000 C 
ATOM     20  C12 UNK     0      -8.284  -1.020   0.893  0.00  0.00    +0.000 C 
ATOM     21  C11 UNK     0      -8.461  -1.123  -0.617  0.00  0.00    +0.000 C 
ENDBRANCH  17  19
ENDBRANCH  11  15
ENDBRANCH   7   9
BRANCH   5  22
ATOM     22  N7  UNK     0       4.031  -0.706  -0.974  0.00  0.00    +0.000 N 
ATOM     23  H43 UNK     0       3.885  -1.295  -1.825  0.00  0.00    +0.000 HD
BRANCH  22  24
ATOM     24  C21 UNK     0       5.381  -0.493  -0.528  0.00  0.00    +0.000 A 
ATOM     25  C25 UNK     0       6.355  -1.469  -0.791  0.00  0.00    +0.000 A 
ATOM     26  C24 UNK     0       7.687  -1.286  -0.378  0.00  0.00    +0.000 A 
ATOM     27  C27 UNK     0       8.048  -0.081   0.250  0.00  0.00    +0.000 A 
ATOM     28  C28 UNK     0       7.088   0.904   0.491  0.00  0.00    +0.000 A 
ATOM     29  C26 UNK     0       5.761   0.703   0.104  0.00  0.00    +0.000 A 
BRANCH  26  30
ATOM     30  C29 UNK     0       8.733  -2.325  -0.695  0.00  0.00    +0.000 C 
ATOM     31  F1  UNK     0       8.178  -3.594  -0.689  0.00  0.00    +0.000 F 
ATOM     32  F2  UNK     0       9.753  -2.295   0.240  0.00  0.00    +0.000 F 
ATOM     33  F3  UNK     0       9.262  -2.071  -1.946  0.00  0.00    +0.000 F 
ENDBRANCH  26  30
ENDBRANCH  22  24
ENDBRANCH   5  22
TORSDOF 6
