REMARK  Name = C:\Users\Maximilian\Desktop\Conformers\converted_pdb\conformers_pdb\VGX_1027_conf_73.pdb
REMARK  6 active torsions:
REMARK  status: ('A' for Active; 'I' for Inactive)
REMARK    1  A    between atoms: C23_5  and  N7_22
REMARK    2  A    between atoms: N6_7  and  C17_9
REMARK    3  A    between atoms: C14_11  and  N5_15
REMARK    4  A    between atoms: C13_17  and  C10_19
REMARK    5  A    between atoms: N7_22  and  C21_24
REMARK    6  A    between atoms: C24_26  and  C29_30
REMARK                            x       y       z     vdW  Elec       q    Type
REMARK                         _______ _______ _______ _____ _____    ______ ____
ROOT
ATOM      1  N8  UNK     0      -0.524   2.705  -0.651  0.00  0.00    +0.000 NA
ATOM      2  N9  UNK     0      -2.795   2.986  -1.197  0.00  0.00    +0.000 NA
ATOM      3  C20 UNK     0      -0.735   1.404  -0.315  0.00  0.00    +0.000 A 
ATOM      4  C22 UNK     0      -2.020   0.864  -0.438  0.00  0.00    +0.000 A 
ATOM      5  C23 UNK     0      -3.065   1.696  -0.868  0.00  0.00    +0.000 A 
ATOM      6  C30 UNK     0      -1.540   3.493  -1.087  0.00  0.00    +0.000 A 
ATOM      7  N6  UNK     0       0.356   0.569   0.105  0.00  0.00    +0.000 N 
ATOM      8  H41 UNK     0       0.236  -0.468   0.036  0.00  0.00    +0.000 HD
ENDROOT
BRANCH   7   9
ATOM      9  C17 UNK     0       1.641   1.069   0.512  0.00  0.00    +0.000 A 
ATOM     10  C15 UNK     0       2.794   0.322   0.222  0.00  0.00    +0.000 A 
ATOM     11  C14 UNK     0       4.063   0.771   0.632  0.00  0.00    +0.000 A 
ATOM     12  C16 UNK     0       4.167   1.989   1.320  0.00  0.00    +0.000 A 
ATOM     13  C18 UNK     0       3.022   2.724   1.633  0.00  0.00    +0.000 A 
ATOM     14  C19 UNK     0       1.763   2.263   1.243  0.00  0.00    +0.000 A 
BRANCH  11  15
ATOM     15  N5  UNK     0       5.257   0.037   0.312  0.00  0.00    +0.000 N 
ATOM     16  H36 UNK     0       6.146   0.580   0.242  0.00  0.00    +0.000 HD
ATOM     17  C13 UNK     0       5.306  -1.400   0.223  0.00  0.00    +0.000 C 
ATOM     18  O4  UNK     0       4.415  -2.090   0.788  0.00  0.00    +0.000 OA
BRANCH  17  19
ATOM     19  C10 UNK     0       6.411  -2.137  -0.498  0.00  0.00    +0.000 C 
ATOM     20  C12 UNK     0       7.828  -1.688  -0.177  0.00  0.00    +0.000 C 
ATOM     21  C11 UNK     0       7.215  -1.366  -1.534  0.00  0.00    +0.000 C 
ENDBRANCH  17  19
ENDBRANCH  11  15
ENDBRANCH   7   9
BRANCH   5  22
ATOM     22  N7  UNK     0      -4.402   1.196  -1.036  0.00  0.00    +0.000 N 
ATOM     23  H43 UNK     0      -4.996   1.649  -1.767  0.00  0.00    +0.000 HD
BRANCH  22  24
ATOM     24  C21 UNK     0      -4.977   0.127  -0.266  0.00  0.00    +0.000 A 
ATOM     25  C25 UNK     0      -5.939  -0.706  -0.856  0.00  0.00    +0.000 A 
ATOM     26  C24 UNK     0      -6.550  -1.736  -0.117  0.00  0.00    +0.000 A 
ATOM     27  C27 UNK     0      -6.161  -1.941   1.218  0.00  0.00    +0.000 A 
ATOM     28  C28 UNK     0      -5.222  -1.099   1.817  0.00  0.00    +0.000 A 
ATOM     29  C26 UNK     0      -4.640  -0.062   1.085  0.00  0.00    +0.000 A 
BRANCH  26  30
ATOM     30  C29 UNK     0      -7.535  -2.668  -0.778  0.00  0.00    +0.000 C 
ATOM     31  F1  UNK     0      -8.433  -3.168   0.149  0.00  0.00    +0.000 F 
ATOM     32  F2  UNK     0      -6.849  -3.720  -1.354  0.00  0.00    +0.000 F 
ATOM     33  F3  UNK     0      -8.251  -2.004  -1.759  0.00  0.00    +0.000 F 
ENDBRANCH  26  30
ENDBRANCH  22  24
ENDBRANCH   5  22
TORSDOF 6
