REMARK  Name = C:\Users\Maximilian\Desktop\Conformers\converted_pdb\conformers_pdb\VGX_1027_conf_35.pdb
REMARK  6 active torsions:
REMARK  status: ('A' for Active; 'I' for Inactive)
REMARK    1  A    between atoms: C23_5  and  N7_22
REMARK    2  A    between atoms: N6_7  and  C17_9
REMARK    3  A    between atoms: C14_11  and  N5_15
REMARK    4  A    between atoms: C13_17  and  C10_19
REMARK    5  A    between atoms: N7_22  and  C21_24
REMARK    6  A    between atoms: C24_26  and  C29_30
REMARK                            x       y       z     vdW  Elec       q    Type
REMARK                         _______ _______ _______ _____ _____    ______ ____
ROOT
ATOM      1  N8  UNK     0      -1.084   4.180  -1.516  0.00  0.00    +0.000 NA
ATOM      2  N9  UNK     0      -3.366   3.671  -1.256  0.00  0.00    +0.000 NA
ATOM      3  C20 UNK     0      -0.724   2.998  -0.950  0.00  0.00    +0.000 A 
ATOM      4  C22 UNK     0      -1.722   2.099  -0.545  0.00  0.00    +0.000 A 
ATOM      5  C23 UNK     0      -3.067   2.459  -0.719  0.00  0.00    +0.000 A 
ATOM      6  C30 UNK     0      -2.390   4.523  -1.661  0.00  0.00    +0.000 A 
ATOM      7  N6  UNK     0       0.671   2.672  -0.838  0.00  0.00    +0.000 N 
ATOM      8  H41 UNK     0       1.324   3.103  -1.531  0.00  0.00    +0.000 HD
ENDROOT
BRANCH   7   9
ATOM      9  C17 UNK     0       1.226   1.792   0.154  0.00  0.00    +0.000 A 
ATOM     10  C15 UNK     0       2.341   1.004  -0.170  0.00  0.00    +0.000 A 
ATOM     11  C14 UNK     0       2.922   0.154   0.790  0.00  0.00    +0.000 A 
ATOM     12  C16 UNK     0       2.361   0.088   2.074  0.00  0.00    +0.000 A 
ATOM     13  C18 UNK     0       1.268   0.889   2.409  0.00  0.00    +0.000 A 
ATOM     14  C19 UNK     0       0.709   1.747   1.460  0.00  0.00    +0.000 A 
BRANCH  11  15
ATOM     15  N5  UNK     0       4.041  -0.689   0.464  0.00  0.00    +0.000 N 
ATOM     16  H36 UNK     0       4.152  -1.567   1.018  0.00  0.00    +0.000 HD
ATOM     17  C13 UNK     0       5.070  -0.317  -0.473  0.00  0.00    +0.000 C 
ATOM     18  O4  UNK     0       5.239   0.898  -0.762  0.00  0.00    +0.000 OA
BRANCH  17  19
ATOM     19  C10 UNK     0       5.996  -1.325  -1.112  0.00  0.00    +0.000 C 
ATOM     20  C12 UNK     0       5.546  -2.779  -1.143  0.00  0.00    +0.000 C 
ATOM     21  C11 UNK     0       6.631  -2.335  -0.170  0.00  0.00    +0.000 C 
ENDBRANCH  17  19
ENDBRANCH  11  15
ENDBRANCH   7   9
BRANCH   5  22
ATOM     22  N7  UNK     0      -4.136   1.602  -0.287  0.00  0.00    +0.000 N 
ATOM     23  H43 UNK     0      -5.032   2.057  -0.001  0.00  0.00    +0.000 HD
BRANCH  22  24
ATOM     24  C21 UNK     0      -4.054   0.168  -0.213  0.00  0.00    +0.000 A 
ATOM     25  C25 UNK     0      -4.764  -0.512   0.788  0.00  0.00    +0.000 A 
ATOM     26  C24 UNK     0      -4.731  -1.916   0.865  0.00  0.00    +0.000 A 
ATOM     27  C27 UNK     0      -3.951  -2.632  -0.060  0.00  0.00    +0.000 A 
ATOM     28  C28 UNK     0      -3.263  -1.961  -1.073  0.00  0.00    +0.000 A 
ATOM     29  C26 UNK     0      -3.323  -0.569  -1.159  0.00  0.00    +0.000 A 
BRANCH  26  30
ATOM     30  C29 UNK     0      -5.442  -2.636   1.983  0.00  0.00    +0.000 C 
ATOM     31  F1  UNK     0      -4.599  -2.727   3.074  0.00  0.00    +0.000 F 
ATOM     32  F2  UNK     0      -5.810  -3.911   1.589  0.00  0.00    +0.000 F 
ATOM     33  F3  UNK     0      -6.587  -1.951   2.353  0.00  0.00    +0.000 F 
ENDBRANCH  26  30
ENDBRANCH  22  24
ENDBRANCH   5  22
TORSDOF 6
