REMARK  Name = C:\Users\Maximilian\Desktop\Conformers\converted_pdb\conformers_pdb\VGX_1027_conf_82.pdb
REMARK  6 active torsions:
REMARK  status: ('A' for Active; 'I' for Inactive)
REMARK    1  A    between atoms: C23_5  and  N7_22
REMARK    2  A    between atoms: N6_7  and  C17_9
REMARK    3  A    between atoms: C14_11  and  N5_15
REMARK    4  A    between atoms: C13_17  and  C10_19
REMARK    5  A    between atoms: N7_22  and  C21_24
REMARK    6  A    between atoms: C24_26  and  C29_30
REMARK                            x       y       z     vdW  Elec       q    Type
REMARK                         _______ _______ _______ _____ _____    ______ ____
ROOT
ATOM      1  N8  UNK     0       0.694  -1.198  -0.630  0.00  0.00    +0.000 NA
ATOM      2  N9  UNK     0       3.020  -0.853  -0.649  0.00  0.00    +0.000 NA
ATOM      3  C20 UNK     0       0.538  -0.294   0.376  0.00  0.00    +0.000 A 
ATOM      4  C22 UNK     0       1.663   0.368   0.883  0.00  0.00    +0.000 A 
ATOM      5  C23 UNK     0       2.922   0.060   0.357  0.00  0.00    +0.000 A 
ATOM      6  C30 UNK     0       1.921  -1.484  -1.136  0.00  0.00    +0.000 A 
ATOM      7  N6  UNK     0      -0.770   0.027   0.878  0.00  0.00    +0.000 N 
ATOM      8  H41 UNK     0      -0.869   0.882   1.476  0.00  0.00    +0.000 HD
ENDROOT
BRANCH   7   9
ATOM      9  C17 UNK     0      -1.974  -0.640   0.462  0.00  0.00    +0.000 A 
ATOM     10  C15 UNK     0      -3.145   0.109   0.272  0.00  0.00    +0.000 A 
ATOM     11  C14 UNK     0      -4.337  -0.505  -0.143  0.00  0.00    +0.000 A 
ATOM     12  C16 UNK     0      -4.340  -1.890  -0.383  0.00  0.00    +0.000 A 
ATOM     13  C18 UNK     0      -3.188  -2.648  -0.156  0.00  0.00    +0.000 A 
ATOM     14  C19 UNK     0      -2.014  -2.032   0.276  0.00  0.00    +0.000 A 
BRANCH  11  15
ATOM     15  N5  UNK     0      -5.496   0.313  -0.387  0.00  0.00    +0.000 N 
ATOM     16  H36 UNK     0      -5.342   1.322  -0.599  0.00  0.00    +0.000 HD
ATOM     17  C13 UNK     0      -6.857  -0.128  -0.266  0.00  0.00    +0.000 C 
ATOM     18  O4  UNK     0      -7.132  -1.250   0.235  0.00  0.00    +0.000 OA
BRANCH  17  19
ATOM     19  C10 UNK     0      -7.965   0.755  -0.756  0.00  0.00    +0.000 C 
ATOM     20  C12 UNK     0      -8.171   2.005   0.081  0.00  0.00    +0.000 C 
ATOM     21  C11 UNK     0      -9.171   0.866   0.164  0.00  0.00    +0.000 C 
ENDBRANCH  17  19
ENDBRANCH  11  15
ENDBRANCH   7   9
BRANCH   5  22
ATOM     22  N7  UNK     0       4.088   0.751   0.833  0.00  0.00    +0.000 N 
ATOM     23  H43 UNK     0       3.954   1.665   1.327  0.00  0.00    +0.000 HD
BRANCH  22  24
ATOM     24  C21 UNK     0       5.435   0.313   0.573  0.00  0.00    +0.000 A 
ATOM     25  C25 UNK     0       6.443   1.270   0.377  0.00  0.00    +0.000 A 
ATOM     26  C24 UNK     0       7.773   0.875   0.141  0.00  0.00    +0.000 A 
ATOM     27  C27 UNK     0       8.077  -0.497   0.079  0.00  0.00    +0.000 A 
ATOM     28  C28 UNK     0       7.081  -1.451   0.298  0.00  0.00    +0.000 A 
ATOM     29  C26 UNK     0       5.769  -1.051   0.558  0.00  0.00    +0.000 A 
BRANCH  26  30
ATOM     30  C29 UNK     0       8.839   1.907  -0.128  0.00  0.00    +0.000 C 
ATOM     31  F1  UNK     0      10.091   1.429   0.218  0.00  0.00    +0.000 F 
ATOM     32  F2  UNK     0       8.599   3.052   0.607  0.00  0.00    +0.000 F 
ATOM     33  F3  UNK     0       8.835   2.224  -1.472  0.00  0.00    +0.000 F 
ENDBRANCH  26  30
ENDBRANCH  22  24
ENDBRANCH   5  22
TORSDOF 6
