REMARK  Name = C:\Users\Maximilian\Desktop\Conformers\converted_pdb\conformers_pdb\VGX_1027_conf_7.pdb
REMARK  6 active torsions:
REMARK  status: ('A' for Active; 'I' for Inactive)
REMARK    1  A    between atoms: C23_5  and  N7_22
REMARK    2  A    between atoms: N6_7  and  C17_9
REMARK    3  A    between atoms: C14_11  and  N5_15
REMARK    4  A    between atoms: C13_17  and  C10_19
REMARK    5  A    between atoms: N7_22  and  C21_24
REMARK    6  A    between atoms: C24_26  and  C29_30
REMARK                            x       y       z     vdW  Elec       q    Type
REMARK                         _______ _______ _______ _____ _____    ______ ____
ROOT
ATOM      1  N8  UNK     0       0.740   0.130  -1.106  0.00  0.00    +0.000 NA
ATOM      2  N9  UNK     0       3.021   0.471  -0.645  0.00  0.00    +0.000 NA
ATOM      3  C20 UNK     0       0.469  -0.046   0.216  0.00  0.00    +0.000 A 
ATOM      4  C22 UNK     0       1.507   0.056   1.148  0.00  0.00    +0.000 A 
ATOM      5  C23 UNK     0       2.806   0.303   0.689  0.00  0.00    +0.000 A 
ATOM      6  C30 UNK     0       2.002   0.382  -1.537  0.00  0.00    +0.000 A 
ATOM      7  N6  UNK     0      -0.876  -0.281   0.663  0.00  0.00    +0.000 N 
ATOM      8  H41 UNK     0      -1.102  -0.083   1.665  0.00  0.00    +0.000 HD
ENDROOT
BRANCH   7   9
ATOM      9  C17 UNK     0      -1.956  -0.669  -0.203  0.00  0.00    +0.000 A 
ATOM     10  C15 UNK     0      -3.255  -0.212   0.069  0.00  0.00    +0.000 A 
ATOM     11  C14 UNK     0      -4.337  -0.598  -0.743  0.00  0.00    +0.000 A 
ATOM     12  C16 UNK     0      -4.101  -1.433  -1.845  0.00  0.00    +0.000 A 
ATOM     13  C18 UNK     0      -2.815  -1.912  -2.106  0.00  0.00    +0.000 A 
ATOM     14  C19 UNK     0      -1.748  -1.542  -1.285  0.00  0.00    +0.000 A 
BRANCH  11  15
ATOM     15  N5  UNK     0      -5.668  -0.110  -0.500  0.00  0.00    +0.000 N 
ATOM     16  H36 UNK     0      -6.313  -0.059  -1.319  0.00  0.00    +0.000 HD
ATOM     17  C13 UNK     0      -6.184   0.169   0.816  0.00  0.00    +0.000 C 
ATOM     18  O4  UNK     0      -5.634  -0.351   1.824  0.00  0.00    +0.000 OA
BRANCH  17  19
ATOM     19  C10 UNK     0      -7.394   1.042   1.050  0.00  0.00    +0.000 C 
ATOM     20  C12 UNK     0      -8.606   0.746   0.180  0.00  0.00    +0.000 C 
ATOM     21  C11 UNK     0      -7.791   2.012  -0.054  0.00  0.00    +0.000 C 
ENDBRANCH  17  19
ENDBRANCH  11  15
ENDBRANCH   7   9
BRANCH   5  22
ATOM     22  N7  UNK     0       3.887   0.430   1.627  0.00  0.00    +0.000 N 
ATOM     23  H43 UNK     0       3.648   0.617   2.628  0.00  0.00    +0.000 HD
BRANCH  22  24
ATOM     24  C21 UNK     0       5.277   0.421   1.259  0.00  0.00    +0.000 A 
ATOM     25  C25 UNK     0       5.755  -0.408   0.227  0.00  0.00    +0.000 A 
ATOM     26  C24 UNK     0       7.119  -0.412  -0.115  0.00  0.00    +0.000 A 
ATOM     27  C27 UNK     0       8.013   0.377   0.630  0.00  0.00    +0.000 A 
ATOM     28  C28 UNK     0       7.545   1.181   1.672  0.00  0.00    +0.000 A 
ATOM     29  C26 UNK     0       6.185   1.201   1.987  0.00  0.00    +0.000 A 
BRANCH  26  30
ATOM     30  C29 UNK     0       7.628  -1.333  -1.196  0.00  0.00    +0.000 C 
ATOM     31  F1  UNK     0       6.684  -1.470  -2.199  0.00  0.00    +0.000 F 
ATOM     32  F2  UNK     0       7.889  -2.575  -0.649  0.00  0.00    +0.000 F 
ATOM     33  F3  UNK     0       8.790  -0.835  -1.760  0.00  0.00    +0.000 F 
ENDBRANCH  26  30
ENDBRANCH  22  24
ENDBRANCH   5  22
TORSDOF 6
