REMARK  Name = C:\Users\Maximilian\Desktop\Conformers\converted_pdb\conformers_pdb\VGX_1027_conf_31.pdb
REMARK  6 active torsions:
REMARK  status: ('A' for Active; 'I' for Inactive)
REMARK    1  A    between atoms: C23_5  and  N7_22
REMARK    2  A    between atoms: N6_7  and  C17_9
REMARK    3  A    between atoms: C14_11  and  N5_15
REMARK    4  A    between atoms: C13_17  and  C10_19
REMARK    5  A    between atoms: N7_22  and  C21_24
REMARK    6  A    between atoms: C24_26  and  C29_30
REMARK                            x       y       z     vdW  Elec       q    Type
REMARK                         _______ _______ _______ _____ _____    ______ ____
ROOT
ATOM      1  N8  UNK     0       1.658   2.441  -1.898  0.00  0.00    +0.000 NA
ATOM      2  N9  UNK     0       3.473   1.448  -0.778  0.00  0.00    +0.000 NA
ATOM      3  C20 UNK     0       0.773   1.683  -1.198  0.00  0.00    +0.000 A 
ATOM      4  C22 UNK     0       1.254   0.749  -0.269  0.00  0.00    +0.000 A 
ATOM      5  C23 UNK     0       2.634   0.642  -0.072  0.00  0.00    +0.000 A 
ATOM      6  C30 UNK     0       2.995   2.336  -1.687  0.00  0.00    +0.000 A 
ATOM      7  N6  UNK     0      -0.631   1.809  -1.475  0.00  0.00    +0.000 N 
ATOM      8  H41 UNK     0      -0.909   2.100  -2.439  0.00  0.00    +0.000 HD
ENDROOT
BRANCH   7   9
ATOM      9  C17 UNK     0      -1.673   1.593  -0.508  0.00  0.00    +0.000 A 
ATOM     10  C15 UNK     0      -2.925   1.126  -0.936  0.00  0.00    +0.000 A 
ATOM     11  C14 UNK     0      -3.969   0.924  -0.020  0.00  0.00    +0.000 A 
ATOM     12  C16 UNK     0      -3.765   1.250   1.332  0.00  0.00    +0.000 A 
ATOM     13  C18 UNK     0      -2.529   1.737   1.761  0.00  0.00    +0.000 A 
ATOM     14  C19 UNK     0      -1.487   1.911   0.848  0.00  0.00    +0.000 A 
BRANCH  11  15
ATOM     15  N5  UNK     0      -5.240   0.450  -0.496  0.00  0.00    +0.000 N 
ATOM     16  H36 UNK     0      -5.506   0.673  -1.482  0.00  0.00    +0.000 HD
ATOM     17  C13 UNK     0      -6.112  -0.415   0.248  0.00  0.00    +0.000 C 
ATOM     18  O4  UNK     0      -5.741  -0.921   1.342  0.00  0.00    +0.000 OA
BRANCH  17  19
ATOM     19  C10 UNK     0      -7.486  -0.716  -0.274  0.00  0.00    +0.000 C 
ATOM     20  C12 UNK     0      -7.869  -2.190  -0.284  0.00  0.00    +0.000 C 
ATOM     21  C11 UNK     0      -7.499  -1.493  -1.583  0.00  0.00    +0.000 C 
ENDBRANCH  17  19
ENDBRANCH  11  15
ENDBRANCH   7   9
BRANCH   5  22
ATOM     22  N7  UNK     0       3.151  -0.285   0.897  0.00  0.00    +0.000 N 
ATOM     23  H43 UNK     0       2.498  -0.645   1.631  0.00  0.00    +0.000 HD
BRANCH  22  24
ATOM     24  C21 UNK     0       4.536  -0.663   0.987  0.00  0.00    +0.000 A 
ATOM     25  C25 UNK     0       5.321  -0.840  -0.166  0.00  0.00    +0.000 A 
ATOM     26  C24 UNK     0       6.671  -1.221  -0.064  0.00  0.00    +0.000 A 
ATOM     27  C27 UNK     0       7.212  -1.484   1.207  0.00  0.00    +0.000 A 
ATOM     28  C28 UNK     0       6.428  -1.330   2.353  0.00  0.00    +0.000 A 
ATOM     29  C26 UNK     0       5.097  -0.924   2.244  0.00  0.00    +0.000 A 
BRANCH  26  30
ATOM     30  C29 UNK     0       7.491  -1.439  -1.310  0.00  0.00    +0.000 C 
ATOM     31  F1  UNK     0       7.151  -0.512  -2.279  0.00  0.00    +0.000 F 
ATOM     32  F2  UNK     0       7.250  -2.710  -1.798  0.00  0.00    +0.000 F 
ATOM     33  F3  UNK     0       8.843  -1.309  -1.043  0.00  0.00    +0.000 F 
ENDBRANCH  26  30
ENDBRANCH  22  24
ENDBRANCH   5  22
TORSDOF 6
