REMARK  Name = C:\Users\Maximilian\Desktop\Conformers\converted_pdb\conformers_pdb\VGX_1027_conf_76.pdb
REMARK  6 active torsions:
REMARK  status: ('A' for Active; 'I' for Inactive)
REMARK    1  A    between atoms: C23_5  and  N7_22
REMARK    2  A    between atoms: N6_7  and  C17_9
REMARK    3  A    between atoms: C14_11  and  N5_15
REMARK    4  A    between atoms: C13_17  and  C10_19
REMARK    5  A    between atoms: N7_22  and  C21_24
REMARK    6  A    between atoms: C24_26  and  C29_30
REMARK                            x       y       z     vdW  Elec       q    Type
REMARK                         _______ _______ _______ _____ _____    ______ ____
ROOT
ATOM      1  N8  UNK     0      -0.496   2.949   0.095  0.00  0.00    +0.000 NA
ATOM      2  N9  UNK     0      -2.794   3.401  -0.130  0.00  0.00    +0.000 NA
ATOM      3  C20 UNK     0      -0.727   1.608   0.065  0.00  0.00    +0.000 A 
ATOM      4  C22 UNK     0      -2.037   1.141  -0.084  0.00  0.00    +0.000 A 
ATOM      5  C23 UNK     0      -3.084   2.073  -0.157  0.00  0.00    +0.000 A 
ATOM      6  C30 UNK     0      -1.516   3.840   0.001  0.00  0.00    +0.000 A 
ATOM      7  N6  UNK     0       0.364   0.675   0.124  0.00  0.00    +0.000 N 
ATOM      8  H41 UNK     0       0.199  -0.297  -0.225  0.00  0.00    +0.000 HD
ENDROOT
BRANCH   7   9
ATOM      9  C17 UNK     0       1.699   1.022   0.532  0.00  0.00    +0.000 A 
ATOM     10  C15 UNK     0       2.791   0.376  -0.066  0.00  0.00    +0.000 A 
ATOM     11  C14 UNK     0       4.108   0.674   0.332  0.00  0.00    +0.000 A 
ATOM     12  C16 UNK     0       4.319   1.644   1.321  0.00  0.00    +0.000 A 
ATOM     13  C18 UNK     0       3.236   2.272   1.938  0.00  0.00    +0.000 A 
ATOM     14  C19 UNK     0       1.930   1.956   1.556  0.00  0.00    +0.000 A 
BRANCH  11  15
ATOM     15  N5  UNK     0       5.240   0.049  -0.296  0.00  0.00    +0.000 N 
ATOM     16  H36 UNK     0       6.128   0.598  -0.361  0.00  0.00    +0.000 HD
ATOM     17  C13 UNK     0       5.270  -1.322  -0.724  0.00  0.00    +0.000 C 
ATOM     18  O4  UNK     0       4.326  -2.107  -0.438  0.00  0.00    +0.000 OA
BRANCH  17  19
ATOM     19  C10 UNK     0       6.429  -1.827  -1.530  0.00  0.00    +0.000 C 
ATOM     20  C12 UNK     0       7.063  -3.111  -1.013  0.00  0.00    +0.000 C 
ATOM     21  C11 UNK     0       7.768  -1.781  -0.808  0.00  0.00    +0.000 C 
ENDBRANCH  17  19
ENDBRANCH  11  15
ENDBRANCH   7   9
BRANCH   5  22
ATOM     22  N7  UNK     0      -4.448   1.658  -0.333  0.00  0.00    +0.000 N 
ATOM     23  H43 UNK     0      -5.087   2.309  -0.844  0.00  0.00    +0.000 HD
BRANCH  22  24
ATOM     24  C21 UNK     0      -4.994   0.419   0.150  0.00  0.00    +0.000 A 
ATOM     25  C25 UNK     0      -6.034  -0.199  -0.560  0.00  0.00    +0.000 A 
ATOM     26  C24 UNK     0      -6.616  -1.391  -0.092  0.00  0.00    +0.000 A 
ATOM     27  C27 UNK     0      -6.120  -1.976   1.086  0.00  0.00    +0.000 A 
ATOM     28  C28 UNK     0      -5.102  -1.352   1.810  0.00  0.00    +0.000 A 
ATOM     29  C26 UNK     0      -4.548  -0.154   1.353  0.00  0.00    +0.000 A 
BRANCH  26  30
ATOM     30  C29 UNK     0      -7.689  -2.082  -0.895  0.00  0.00    +0.000 C 
ATOM     31  F1  UNK     0      -8.465  -1.156  -1.570  0.00  0.00    +0.000 F 
ATOM     32  F2  UNK     0      -8.519  -2.822  -0.070  0.00  0.00    +0.000 F 
ATOM     33  F3  UNK     0      -7.096  -2.929  -1.813  0.00  0.00    +0.000 F 
ENDBRANCH  26  30
ENDBRANCH  22  24
ENDBRANCH   5  22
TORSDOF 6
