REMARK  Name = C:\Users\Maximilian\Desktop\Conformers\converted_pdb\conformers_pdb\VGX_1027_conf_11.pdb
REMARK  6 active torsions:
REMARK  status: ('A' for Active; 'I' for Inactive)
REMARK    1  A    between atoms: C23_5  and  N7_22
REMARK    2  A    between atoms: N6_7  and  C17_9
REMARK    3  A    between atoms: C14_11  and  N5_15
REMARK    4  A    between atoms: C13_17  and  C10_19
REMARK    5  A    between atoms: N7_22  and  C21_24
REMARK    6  A    between atoms: C24_26  and  C29_30
REMARK                            x       y       z     vdW  Elec       q    Type
REMARK                         _______ _______ _______ _____ _____    ______ ____
ROOT
ATOM      1  N8  UNK     0      -0.003  -1.636   0.297  0.00  0.00    +0.000 NA
ATOM      2  N9  UNK     0       1.547  -2.985  -0.848  0.00  0.00    +0.000 NA
ATOM      3  C20 UNK     0       0.753  -0.527   0.073  0.00  0.00    +0.000 A 
ATOM      4  C22 UNK     0       1.960  -0.649  -0.623  0.00  0.00    +0.000 A 
ATOM      5  C23 UNK     0       2.357  -1.917  -1.073  0.00  0.00    +0.000 A 
ATOM      6  C30 UNK     0       0.381  -2.854  -0.163  0.00  0.00    +0.000 A 
ATOM      7  N6  UNK     0       0.344   0.754   0.581  0.00  0.00    +0.000 N 
ATOM      8  H41 UNK     0       1.072   1.498   0.679  0.00  0.00    +0.000 HD
ENDROOT
BRANCH   7   9
ATOM      9  C17 UNK     0      -0.977   1.040   1.071  0.00  0.00    +0.000 A 
ATOM     10  C15 UNK     0      -2.119   0.489   0.462  0.00  0.00    +0.000 A 
ATOM     11  C14 UNK     0      -3.403   0.785   0.946  0.00  0.00    +0.000 A 
ATOM     12  C16 UNK     0      -3.541   1.684   2.018  0.00  0.00    +0.000 A 
ATOM     13  C18 UNK     0      -2.411   2.254   2.609  0.00  0.00    +0.000 A 
ATOM     14  C19 UNK     0      -1.136   1.937   2.137  0.00  0.00    +0.000 A 
BRANCH  11  15
ATOM     15  N5  UNK     0      -4.550   0.218   0.291  0.00  0.00    +0.000 N 
ATOM     16  H36 UNK     0      -4.466  -0.037  -0.719  0.00  0.00    +0.000 HD
ATOM     17  C13 UNK     0      -5.777  -0.112   0.959  0.00  0.00    +0.000 C 
ATOM     18  O4  UNK     0      -5.826  -0.181   2.217  0.00  0.00    +0.000 OA
BRANCH  17  19
ATOM     19  C10 UNK     0      -6.990  -0.474   0.157  0.00  0.00    +0.000 C 
ATOM     20  C12 UNK     0      -7.455   0.605  -0.808  0.00  0.00    +0.000 C 
ATOM     21  C11 UNK     0      -8.230   0.349   0.473  0.00  0.00    +0.000 C 
ENDBRANCH  17  19
ENDBRANCH  11  15
ENDBRANCH   7   9
BRANCH   5  22
ATOM     22  N7  UNK     0       3.566  -2.103  -1.825  0.00  0.00    +0.000 N 
ATOM     23  H43 UNK     0       3.588  -2.886  -2.517  0.00  0.00    +0.000 HD
BRANCH  22  24
ATOM     24  C21 UNK     0       4.745  -1.290  -1.690  0.00  0.00    +0.000 A 
ATOM     25  C25 UNK     0       5.125  -0.756  -0.445  0.00  0.00    +0.000 A 
ATOM     26  C24 UNK     0       6.298   0.009  -0.321  0.00  0.00    +0.000 A 
ATOM     27  C27 UNK     0       7.076   0.257  -1.465  0.00  0.00    +0.000 A 
ATOM     28  C28 UNK     0       6.717  -0.295  -2.697  0.00  0.00    +0.000 A 
ATOM     29  C26 UNK     0       5.563  -1.075  -2.807  0.00  0.00    +0.000 A 
BRANCH  26  30
ATOM     30  C29 UNK     0       6.664   0.630   1.004  0.00  0.00    +0.000 C 
ATOM     31  F1  UNK     0       6.285  -0.196   2.049  0.00  0.00    +0.000 F 
ATOM     32  F2  UNK     0       6.016   1.844   1.131  0.00  0.00    +0.000 F 
ATOM     33  F3  UNK     0       8.030   0.837   1.091  0.00  0.00    +0.000 F 
ENDBRANCH  26  30
ENDBRANCH  22  24
ENDBRANCH   5  22
TORSDOF 6
