REMARK  Name = C:\Users\Maximilian\Desktop\Conformers\converted_pdb\conformers_pdb\VGX_1027_conf_32.pdb
REMARK  6 active torsions:
REMARK  status: ('A' for Active; 'I' for Inactive)
REMARK    1  A    between atoms: C23_5  and  N7_22
REMARK    2  A    between atoms: N6_7  and  C17_9
REMARK    3  A    between atoms: C14_11  and  N5_15
REMARK    4  A    between atoms: C13_17  and  C10_19
REMARK    5  A    between atoms: N7_22  and  C21_24
REMARK    6  A    between atoms: C24_26  and  C29_30
REMARK                            x       y       z     vdW  Elec       q    Type
REMARK                         _______ _______ _______ _____ _____    ______ ____
ROOT
ATOM      1  N8  UNK     0       0.764  -0.084  -1.355  0.00  0.00    +0.000 NA
ATOM      2  N9  UNK     0       3.076  -0.152  -0.925  0.00  0.00    +0.000 NA
ATOM      3  C20 UNK     0       0.498  -0.723  -0.183  0.00  0.00    +0.000 A 
ATOM      4  C22 UNK     0       1.557  -1.076   0.660  0.00  0.00    +0.000 A 
ATOM      5  C23 UNK     0       2.865  -0.772   0.268  0.00  0.00    +0.000 A 
ATOM      6  C30 UNK     0       2.039   0.196  -1.730  0.00  0.00    +0.000 A 
ATOM      7  N6  UNK     0      -0.856  -0.991   0.214  0.00  0.00    +0.000 N 
ATOM      8  H41 UNK     0      -1.043  -1.176   1.226  0.00  0.00    +0.000 HD
ENDROOT
BRANCH   7   9
ATOM      9  C17 UNK     0      -1.986  -0.912  -0.672  0.00  0.00    +0.000 A 
ATOM     10  C15 UNK     0      -3.223  -0.476  -0.173  0.00  0.00    +0.000 A 
ATOM     11  C14 UNK     0      -4.353  -0.414  -1.009  0.00  0.00    +0.000 A 
ATOM     12  C16 UNK     0      -4.226  -0.777  -2.358  0.00  0.00    +0.000 A 
ATOM     13  C18 UNK     0      -3.004  -1.236  -2.854  0.00  0.00    +0.000 A 
ATOM     14  C19 UNK     0      -1.891  -1.316  -2.015  0.00  0.00    +0.000 A 
BRANCH  11  15
ATOM     15  N5  UNK     0      -5.619   0.066  -0.524  0.00  0.00    +0.000 N 
ATOM     16  H36 UNK     0      -6.267   0.492  -1.223  0.00  0.00    +0.000 HD
ATOM     17  C13 UNK     0      -6.081  -0.138   0.826  0.00  0.00    +0.000 C 
ATOM     18  O4  UNK     0      -5.579  -1.060   1.523  0.00  0.00    +0.000 OA
BRANCH  17  19
ATOM     19  C10 UNK     0      -7.180   0.692   1.447  0.00  0.00    +0.000 C 
ATOM     20  C12 UNK     0      -8.427   0.888   0.599  0.00  0.00    +0.000 C 
ATOM     21  C11 UNK     0      -7.472   2.052   0.829  0.00  0.00    +0.000 C 
ENDBRANCH  17  19
ENDBRANCH  11  15
ENDBRANCH   7   9
BRANCH   5  22
ATOM     22  N7  UNK     0       3.972  -1.158   1.099  0.00  0.00    +0.000 N 
ATOM     23  H43 UNK     0       3.810  -1.899   1.819  0.00  0.00    +0.000 HD
BRANCH  22  24
ATOM     24  C21 UNK     0       5.315  -0.675   0.924  0.00  0.00    +0.000 A 
ATOM     25  C25 UNK     0       5.570   0.656   0.547  0.00  0.00    +0.000 A 
ATOM     26  C24 UNK     0       6.891   1.122   0.413  0.00  0.00    +0.000 A 
ATOM     27  C27 UNK     0       7.956   0.231   0.630  0.00  0.00    +0.000 A 
ATOM     28  C28 UNK     0       7.705  -1.084   1.028  0.00  0.00    +0.000 A 
ATOM     29  C26 UNK     0       6.392  -1.532   1.187  0.00  0.00    +0.000 A 
BRANCH  26  30
ATOM     30  C29 UNK     0       7.153   2.535  -0.046  0.00  0.00    +0.000 C 
ATOM     31  F1  UNK     0       8.394   2.972   0.387  0.00  0.00    +0.000 F 
ATOM     32  F2  UNK     0       6.193   3.395   0.458  0.00  0.00    +0.000 F 
ATOM     33  F3  UNK     0       7.118   2.579  -1.427  0.00  0.00    +0.000 F 
ENDBRANCH  26  30
ENDBRANCH  22  24
ENDBRANCH   5  22
TORSDOF 6
