REMARK  Name = C:\Users\Maximilian\Desktop\Conformers\converted_pdb\conformers_pdb\VGX_1027_conf_65.pdb
REMARK  6 active torsions:
REMARK  status: ('A' for Active; 'I' for Inactive)
REMARK    1  A    between atoms: C23_5  and  N7_22
REMARK    2  A    between atoms: N6_7  and  C17_9
REMARK    3  A    between atoms: C14_11  and  N5_15
REMARK    4  A    between atoms: C13_17  and  C10_19
REMARK    5  A    between atoms: N7_22  and  C21_24
REMARK    6  A    between atoms: C24_26  and  C29_30
REMARK                            x       y       z     vdW  Elec       q    Type
REMARK                         _______ _______ _______ _____ _____    ______ ____
ROOT
ATOM      1  N8  UNK     0       0.332   0.730  -1.478  0.00  0.00    +0.000 NA
ATOM      2  N9  UNK     0      -1.205   2.466  -1.080  0.00  0.00    +0.000 NA
ATOM      3  C20 UNK     0      -0.440  -0.152  -0.786  0.00  0.00    +0.000 A 
ATOM      4  C22 UNK     0      -1.649   0.282  -0.234  0.00  0.00    +0.000 A 
ATOM      5  C23 UNK     0      -2.031   1.621  -0.406  0.00  0.00    +0.000 A 
ATOM      6  C30 UNK     0      -0.038   2.029  -1.619  0.00  0.00    +0.000 A 
ATOM      7  N6  UNK     0      -0.045  -1.527  -0.657  0.00  0.00    +0.000 N 
ATOM      8  H41 UNK     0      -0.783  -2.230  -0.424  0.00  0.00    +0.000 HD
ENDROOT
BRANCH   7   9
ATOM      9  C17 UNK     0       1.278  -2.014  -0.940  0.00  0.00    +0.000 A 
ATOM     10  C15 UNK     0       2.420  -1.258  -0.616  0.00  0.00    +0.000 A 
ATOM     11  C14 UNK     0       3.709  -1.762  -0.876  0.00  0.00    +0.000 A 
ATOM     12  C16 UNK     0       3.842  -3.020  -1.481  0.00  0.00    +0.000 A 
ATOM     13  C18 UNK     0       2.712  -3.784  -1.779  0.00  0.00    +0.000 A 
ATOM     14  C19 UNK     0       1.437  -3.289  -1.499  0.00  0.00    +0.000 A 
BRANCH  11  15
ATOM     15  N5  UNK     0       4.887  -0.992  -0.581  0.00  0.00    +0.000 N 
ATOM     16  H36 UNK     0       5.737  -1.184  -1.155  0.00  0.00    +0.000 HD
ATOM     17  C13 UNK     0       4.986  -0.088   0.536  0.00  0.00    +0.000 C 
ATOM     18  O4  UNK     0       4.208  -0.223   1.518  0.00  0.00    +0.000 OA
BRANCH  17  19
ATOM     19  C10 UNK     0       6.017   1.013   0.606  0.00  0.00    +0.000 C 
ATOM     20  C12 UNK     0       6.647   1.475  -0.701  0.00  0.00    +0.000 C 
ATOM     21  C11 UNK     0       7.444   0.611   0.267  0.00  0.00    +0.000 C 
ENDBRANCH  17  19
ENDBRANCH  11  15
ENDBRANCH   7   9
BRANCH   5  22
ATOM     22  N7  UNK     0      -3.241   2.139   0.170  0.00  0.00    +0.000 N 
ATOM     23  H43 UNK     0      -3.254   3.150   0.435  0.00  0.00    +0.000 HD
BRANCH  22  24
ATOM     24  C21 UNK     0      -4.431   1.365   0.401  0.00  0.00    +0.000 A 
ATOM     25  C25 UNK     0      -5.263   1.688   1.484  0.00  0.00    +0.000 A 
ATOM     26  C24 UNK     0      -6.454   0.976   1.714  0.00  0.00    +0.000 A 
ATOM     27  C27 UNK     0      -6.788  -0.088   0.859  0.00  0.00    +0.000 A 
ATOM     28  C28 UNK     0      -5.977  -0.397  -0.235  0.00  0.00    +0.000 A 
ATOM     29  C26 UNK     0      -4.810   0.332  -0.472  0.00  0.00    +0.000 A 
BRANCH  26  30
ATOM     30  C29 UNK     0      -7.308   1.287   2.917  0.00  0.00    +0.000 C 
ATOM     31  F1  UNK     0      -6.855   0.554   3.998  0.00  0.00    +0.000 F 
ATOM     32  F2  UNK     0      -8.632   0.965   2.675  0.00  0.00    +0.000 F 
ATOM     33  F3  UNK     0      -7.241   2.635   3.227  0.00  0.00    +0.000 F 
ENDBRANCH  26  30
ENDBRANCH  22  24
ENDBRANCH   5  22
TORSDOF 6
