REMARK  Name = C:\Users\Maximilian\Desktop\Conformers\converted_pdb\conformers_pdb\VGX_1027_conf_6.pdb
REMARK  6 active torsions:
REMARK  status: ('A' for Active; 'I' for Inactive)
REMARK    1  A    between atoms: C23_5  and  N7_22
REMARK    2  A    between atoms: N6_7  and  C17_9
REMARK    3  A    between atoms: C14_11  and  N5_15
REMARK    4  A    between atoms: C13_17  and  C10_19
REMARK    5  A    between atoms: N7_22  and  C21_24
REMARK    6  A    between atoms: C24_26  and  C29_30
REMARK                            x       y       z     vdW  Elec       q    Type
REMARK                         _______ _______ _______ _____ _____    ______ ____
ROOT
ATOM      1  N8  UNK     0      -0.754  -0.955   0.877  0.00  0.00    +0.000 NA
ATOM      2  N9  UNK     0      -3.071  -0.637   0.620  0.00  0.00    +0.000 NA
ATOM      3  C20 UNK     0      -0.527  -0.541  -0.399  0.00  0.00    +0.000 A 
ATOM      4  C22 UNK     0      -1.607  -0.141  -1.193  0.00  0.00    +0.000 A 
ATOM      5  C23 UNK     0      -2.898  -0.192  -0.654  0.00  0.00    +0.000 A 
ATOM      6  C30 UNK     0      -2.012  -1.011   1.384  0.00  0.00    +0.000 A 
ATOM      7  N6  UNK     0       0.812  -0.462  -0.917  0.00  0.00    +0.000 N 
ATOM      8  H41 UNK     0       0.978   0.140  -1.755  0.00  0.00    +0.000 HD
ENDROOT
BRANCH   7   9
ATOM      9  C17 UNK     0       1.955  -1.069  -0.291  0.00  0.00    +0.000 A 
ATOM     10  C15 UNK     0       3.200  -0.427  -0.363  0.00  0.00    +0.000 A 
ATOM     11  C14 UNK     0       4.344  -1.010   0.215  0.00  0.00    +0.000 A 
ATOM     12  C16 UNK     0       4.221  -2.237   0.884  0.00  0.00    +0.000 A 
ATOM     13  C18 UNK     0       2.989  -2.893   0.937  0.00  0.00    +0.000 A 
ATOM     14  C19 UNK     0       1.862  -2.320   0.343  0.00  0.00    +0.000 A 
BRANCH  11  15
ATOM     15  N5  UNK     0       5.620  -0.348   0.181  0.00  0.00    +0.000 N 
ATOM     16  H36 UNK     0       6.293  -0.573   0.947  0.00  0.00    +0.000 HD
ATOM     17  C13 UNK     0       6.055   0.481  -0.913  0.00  0.00    +0.000 C 
ATOM     18  O4  UNK     0       5.506   0.363  -2.041  0.00  0.00    +0.000 OA
BRANCH  17  19
ATOM     19  C10 UNK     0       7.181   1.480  -0.783  0.00  0.00    +0.000 C 
ATOM     20  C12 UNK     0       8.449   0.968  -0.117  0.00  0.00    +0.000 C 
ATOM     21  C11 UNK     0       7.549   1.955   0.615  0.00  0.00    +0.000 C 
ENDBRANCH  17  19
ENDBRANCH  11  15
ENDBRANCH   7   9
BRANCH   5  22
ATOM     22  N7  UNK     0      -4.027   0.179  -1.461  0.00  0.00    +0.000 N 
ATOM     23  H43 UNK     0      -3.901   0.205  -2.499  0.00  0.00    +0.000 HD
BRANCH  22  24
ATOM     24  C21 UNK     0      -5.348   0.406  -0.940  0.00  0.00    +0.000 A 
ATOM     25  C25 UNK     0      -5.546   1.028   0.306  0.00  0.00    +0.000 A 
ATOM     26  C24 UNK     0      -6.845   1.251   0.798  0.00  0.00    +0.000 A 
ATOM     27  C27 UNK     0      -7.947   0.899   0.000  0.00  0.00    +0.000 A 
ATOM     28  C28 UNK     0      -7.754   0.305  -1.249  0.00  0.00    +0.000 A 
ATOM     29  C26 UNK     0      -6.462   0.062  -1.718  0.00  0.00    +0.000 A 
BRANCH  26  30
ATOM     30  C29 UNK     0      -7.051   1.955   2.116  0.00  0.00    +0.000 C 
ATOM     31  F1  UNK     0      -6.023   1.657   2.994  0.00  0.00    +0.000 F 
ATOM     32  F2  UNK     0      -8.244   1.564   2.699  0.00  0.00    +0.000 F 
ATOM     33  F3  UNK     0      -7.079   3.320   1.903  0.00  0.00    +0.000 F 
ENDBRANCH  26  30
ENDBRANCH  22  24
ENDBRANCH   5  22
TORSDOF 6
