REMARK  Name = C:\Users\Maximilian\Desktop\Conformers\converted_pdb\conformers_pdb\VGX_1027_conf_57.pdb
REMARK  6 active torsions:
REMARK  status: ('A' for Active; 'I' for Inactive)
REMARK    1  A    between atoms: C23_5  and  N7_22
REMARK    2  A    between atoms: N6_7  and  C17_9
REMARK    3  A    between atoms: C14_11  and  N5_15
REMARK    4  A    between atoms: C13_17  and  C10_19
REMARK    5  A    between atoms: N7_22  and  C21_24
REMARK    6  A    between atoms: C24_26  and  C29_30
REMARK                            x       y       z     vdW  Elec       q    Type
REMARK                         _______ _______ _______ _____ _____    ______ ____
ROOT
ATOM      1  N8  UNK     0      -0.858  -0.015  -1.283  0.00  0.00    +0.000 NA
ATOM      2  N9  UNK     0      -3.040   0.453  -0.541  0.00  0.00    +0.000 NA
ATOM      3  C20 UNK     0      -0.431  -0.201  -0.004  0.00  0.00    +0.000 A 
ATOM      4  C22 UNK     0      -1.337  -0.041   1.050  0.00  0.00    +0.000 A 
ATOM      5  C23 UNK     0      -2.667   0.279   0.756  0.00  0.00    +0.000 A 
ATOM      6  C30 UNK     0      -2.149   0.306  -1.555  0.00  0.00    +0.000 A 
ATOM      7  N6  UNK     0       0.947  -0.503   0.272  0.00  0.00    +0.000 N 
ATOM      8  H41 UNK     0       1.292  -0.362   1.248  0.00  0.00    +0.000 HD
ENDROOT
BRANCH   7   9
ATOM      9  C17 UNK     0       1.914  -0.847  -0.735  0.00  0.00    +0.000 A 
ATOM     10  C15 UNK     0       3.237  -0.401  -0.600  0.00  0.00    +0.000 A 
ATOM     11  C14 UNK     0       4.208  -0.732  -1.562  0.00  0.00    +0.000 A 
ATOM     12  C16 UNK     0       3.836  -1.498  -2.674  0.00  0.00    +0.000 A 
ATOM     13  C18 UNK     0       2.527  -1.971  -2.800  0.00  0.00    +0.000 A 
ATOM     14  C19 UNK     0       1.572  -1.659  -1.830  0.00  0.00    +0.000 A 
BRANCH  11  15
ATOM     15  N5  UNK     0       5.556  -0.252  -1.454  0.00  0.00    +0.000 N 
ATOM     16  H36 UNK     0       6.083  -0.058  -2.335  0.00  0.00    +0.000 HD
ATOM     17  C13 UNK     0       6.279  -0.183  -0.217  0.00  0.00    +0.000 C 
ATOM     18  O4  UNK     0       5.814  -0.731   0.821  0.00  0.00    +0.000 OA
BRANCH  17  19
ATOM     19  C10 UNK     0       7.614   0.516  -0.183  0.00  0.00    +0.000 C 
ATOM     20  C12 UNK     0       8.314   0.637   1.166  0.00  0.00    +0.000 C 
ATOM     21  C11 UNK     0       7.589   1.836   0.574  0.00  0.00    +0.000 C 
ENDBRANCH  17  19
ENDBRANCH  11  15
ENDBRANCH   7   9
BRANCH   5  22
ATOM     22  N7  UNK     0      -3.611   0.473   1.821  0.00  0.00    +0.000 N 
ATOM     23  H43 UNK     0      -3.239   0.678   2.777  0.00  0.00    +0.000 HD
BRANCH  22  24
ATOM     24  C21 UNK     0      -5.033   0.548   1.620  0.00  0.00    +0.000 A 
ATOM     25  C25 UNK     0      -5.685  -0.302   0.707  0.00  0.00    +0.000 A 
ATOM     26  C24 UNK     0      -7.075  -0.225   0.522  0.00  0.00    +0.000 A 
ATOM     27  C27 UNK     0      -7.819   0.693   1.286  0.00  0.00    +0.000 A 
ATOM     28  C28 UNK     0      -7.178   1.520   2.213  0.00  0.00    +0.000 A 
ATOM     29  C26 UNK     0      -5.793   1.445   2.383  0.00  0.00    +0.000 A 
BRANCH  26  30
ATOM     30  C29 UNK     0      -7.745  -1.164  -0.452  0.00  0.00    +0.000 C 
ATOM     31  F1  UNK     0      -7.123  -1.077  -1.686  0.00  0.00    +0.000 F 
ATOM     32  F2  UNK     0      -9.086  -0.860  -0.616  0.00  0.00    +0.000 F 
ATOM     33  F3  UNK     0      -7.639  -2.462   0.016  0.00  0.00    +0.000 F 
ENDBRANCH  26  30
ENDBRANCH  22  24
ENDBRANCH   5  22
TORSDOF 6
