REMARK  Name = C:\Users\Maximilian\Desktop\Conformers\converted_pdb\conformers_pdb\VGX_1027_conf_23.pdb
REMARK  6 active torsions:
REMARK  status: ('A' for Active; 'I' for Inactive)
REMARK    1  A    between atoms: C23_5  and  N7_22
REMARK    2  A    between atoms: N6_7  and  C17_9
REMARK    3  A    between atoms: C14_11  and  N5_15
REMARK    4  A    between atoms: C13_17  and  C10_19
REMARK    5  A    between atoms: N7_22  and  C21_24
REMARK    6  A    between atoms: C24_26  and  C29_30
REMARK                            x       y       z     vdW  Elec       q    Type
REMARK                         _______ _______ _______ _____ _____    ______ ____
ROOT
ATOM      1  N8  UNK     0      -0.635   2.626  -0.111  0.00  0.00    +0.000 NA
ATOM      2  N9  UNK     0      -2.910   3.036  -0.551  0.00  0.00    +0.000 NA
ATOM      3  C20 UNK     0      -0.907   1.342   0.248  0.00  0.00    +0.000 A 
ATOM      4  C22 UNK     0      -2.225   0.878   0.191  0.00  0.00    +0.000 A 
ATOM      5  C23 UNK     0      -3.234   1.755  -0.234  0.00  0.00    +0.000 A 
ATOM      6  C30 UNK     0      -1.624   3.471  -0.500  0.00  0.00    +0.000 A 
ATOM      7  N6  UNK     0       0.151   0.451   0.640  0.00  0.00    +0.000 N 
ATOM      8  H41 UNK     0      -0.033  -0.577   0.596  0.00  0.00    +0.000 HD
ENDROOT
BRANCH   7   9
ATOM      9  C17 UNK     0       1.480   0.881   0.980  0.00  0.00    +0.000 A 
ATOM     10  C15 UNK     0       2.572   0.062   0.657  0.00  0.00    +0.000 A 
ATOM     11  C14 UNK     0       3.882   0.447   0.983  0.00  0.00    +0.000 A 
ATOM     12  C16 UNK     0       4.087   1.643   1.693  0.00  0.00    +0.000 A 
ATOM     13  C18 UNK     0       3.002   2.451   2.040  0.00  0.00    +0.000 A 
ATOM     14  C19 UNK     0       1.704   2.074   1.689  0.00  0.00    +0.000 A 
BRANCH  11  15
ATOM     15  N5  UNK     0       4.976  -0.422   0.643  0.00  0.00    +0.000 N 
ATOM     16  H36 UNK     0       4.787  -1.448   0.588  0.00  0.00    +0.000 HD
ATOM     17  C13 UNK     0       6.279   0.038   0.252  0.00  0.00    +0.000 C 
ATOM     18  O4  UNK     0       6.498   1.264   0.055  0.00  0.00    +0.000 OA
BRANCH  17  19
ATOM     19  C10 UNK     0       7.398  -0.945   0.084  0.00  0.00    +0.000 C 
ATOM     20  C12 UNK     0       8.163  -0.835  -1.227  0.00  0.00    +0.000 C 
ATOM     21  C11 UNK     0       7.177  -1.971  -1.018  0.00  0.00    +0.000 C 
ENDBRANCH  17  19
ENDBRANCH  11  15
ENDBRANCH   7   9
BRANCH   5  22
ATOM     22  N7  UNK     0      -4.611   1.350  -0.279  0.00  0.00    +0.000 N 
ATOM     23  H43 UNK     0      -5.335   2.088  -0.124  0.00  0.00    +0.000 HD
BRANCH  22  24
ATOM     24  C21 UNK     0      -5.061   0.007  -0.528  0.00  0.00    +0.000 A 
ATOM     25  C25 UNK     0      -6.255  -0.439   0.057  0.00  0.00    +0.000 A 
ATOM     26  C24 UNK     0      -6.741  -1.735  -0.197  0.00  0.00    +0.000 A 
ATOM     27  C27 UNK     0      -5.997  -2.592  -1.025  0.00  0.00    +0.000 A 
ATOM     28  C28 UNK     0      -4.820  -2.144  -1.630  0.00  0.00    +0.000 A 
ATOM     29  C26 UNK     0      -4.359  -0.848  -1.394  0.00  0.00    +0.000 A 
BRANCH  26  30
ATOM     30  C29 UNK     0      -7.992  -2.225   0.489  0.00  0.00    +0.000 C 
ATOM     31  F1  UNK     0      -7.661  -2.730   1.732  0.00  0.00    +0.000 F 
ATOM     32  F2  UNK     0      -8.603  -3.220  -0.255  0.00  0.00    +0.000 F 
ATOM     33  F3  UNK     0      -8.895  -1.189   0.648  0.00  0.00    +0.000 F 
ENDBRANCH  26  30
ENDBRANCH  22  24
ENDBRANCH   5  22
TORSDOF 6
