REMARK  Name = C:\Users\Maximilian\Desktop\Conformers\converted_pdb\conformers_pdb\VGX_1027_conf_51.pdb
REMARK  6 active torsions:
REMARK  status: ('A' for Active; 'I' for Inactive)
REMARK    1  A    between atoms: C23_5  and  N7_22
REMARK    2  A    between atoms: N6_7  and  C17_9
REMARK    3  A    between atoms: C14_11  and  N5_15
REMARK    4  A    between atoms: C13_17  and  C10_19
REMARK    5  A    between atoms: N7_22  and  C21_24
REMARK    6  A    between atoms: C24_26  and  C29_30
REMARK                            x       y       z     vdW  Elec       q    Type
REMARK                         _______ _______ _______ _____ _____    ______ ____
ROOT
ATOM      1  N8  UNK     0       0.615   0.684   1.261  0.00  0.00    +0.000 NA
ATOM      2  N9  UNK     0       2.952   0.738   1.001  0.00  0.00    +0.000 NA
ATOM      3  C20 UNK     0       0.489  -0.171   0.210  0.00  0.00    +0.000 A 
ATOM      4  C22 UNK     0       1.634  -0.577  -0.485  0.00  0.00    +0.000 A 
ATOM      5  C23 UNK     0       2.883  -0.116  -0.057  0.00  0.00    +0.000 A 
ATOM      6  C30 UNK     0       1.833   1.134   1.659  0.00  0.00    +0.000 A 
ATOM      7  N6  UNK     0      -0.808  -0.615  -0.222  0.00  0.00    +0.000 N 
ATOM      8  H41 UNK     0      -0.899  -0.989  -1.194  0.00  0.00    +0.000 HD
ENDROOT
BRANCH   7   9
ATOM      9  C17 UNK     0      -2.006  -0.477   0.560  0.00  0.00    +0.000 A 
ATOM     10  C15 UNK     0      -3.229  -0.245  -0.089  0.00  0.00    +0.000 A 
ATOM     11  C14 UNK     0      -4.420  -0.122   0.644  0.00  0.00    +0.000 A 
ATOM     12  C16 UNK     0      -4.385  -0.285   2.040  0.00  0.00    +0.000 A 
ATOM     13  C18 UNK     0      -3.175  -0.541   2.689  0.00  0.00    +0.000 A 
ATOM     14  C19 UNK     0      -1.991  -0.640   1.956  0.00  0.00    +0.000 A 
BRANCH  11  15
ATOM     15  N5  UNK     0      -5.657   0.108  -0.052  0.00  0.00    +0.000 N 
ATOM     16  H36 UNK     0      -5.706  -0.198  -1.049  0.00  0.00    +0.000 HD
ATOM     17  C13 UNK     0      -6.759   0.848   0.508  0.00  0.00    +0.000 C 
ATOM     18  O4  UNK     0      -6.555   1.639   1.467  0.00  0.00    +0.000 OA
BRANCH  17  19
ATOM     19  C10 UNK     0      -8.167   0.750  -0.032  0.00  0.00    +0.000 C 
ATOM     20  C12 UNK     0      -8.525  -0.475  -0.862  0.00  0.00    +0.000 C 
ATOM     21  C11 UNK     0      -8.308   0.871  -1.541  0.00  0.00    +0.000 C 
ENDBRANCH  17  19
ENDBRANCH  11  15
ENDBRANCH   7   9
BRANCH   5  22
ATOM     22  N7  UNK     0       4.072  -0.502  -0.765  0.00  0.00    +0.000 N 
ATOM     23  H43 UNK     0       3.965  -0.876  -1.736  0.00  0.00    +0.000 HD
BRANCH  22  24
ATOM     24  C21 UNK     0       5.406  -0.309  -0.264  0.00  0.00    +0.000 A 
ATOM     25  C25 UNK     0       6.445  -0.026  -1.163  0.00  0.00    +0.000 A 
ATOM     26  C24 UNK     0       7.763   0.157  -0.706  0.00  0.00    +0.000 A 
ATOM     27  C27 UNK     0       8.040  -0.010   0.662  0.00  0.00    +0.000 A 
ATOM     28  C28 UNK     0       7.013  -0.316   1.558  0.00  0.00    +0.000 A 
ATOM     29  C26 UNK     0       5.703  -0.468   1.101  0.00  0.00    +0.000 A 
BRANCH  26  30
ATOM     30  C29 UNK     0       8.880   0.426  -1.683  0.00  0.00    +0.000 C 
ATOM     31  F1  UNK     0       9.394  -0.777  -2.130  0.00  0.00    +0.000 F 
ATOM     32  F2  UNK     0       9.892   1.153  -1.081  0.00  0.00    +0.000 F 
ATOM     33  F3  UNK     0       8.415   1.150  -2.768  0.00  0.00    +0.000 F 
ENDBRANCH  26  30
ENDBRANCH  22  24
ENDBRANCH   5  22
TORSDOF 6
