REMARK  Name = C:\Users\Maximilian\Desktop\Conformers\converted_pdb\conformers_pdb\VGX_1027_conf_49.pdb
REMARK  6 active torsions:
REMARK  status: ('A' for Active; 'I' for Inactive)
REMARK    1  A    between atoms: C23_5  and  N7_22
REMARK    2  A    between atoms: N6_7  and  C17_9
REMARK    3  A    between atoms: C14_11  and  N5_15
REMARK    4  A    between atoms: C13_17  and  C10_19
REMARK    5  A    between atoms: N7_22  and  C21_24
REMARK    6  A    between atoms: C24_26  and  C29_30
REMARK                            x       y       z     vdW  Elec       q    Type
REMARK                         _______ _______ _______ _____ _____    ______ ____
ROOT
ATOM      1  N8  UNK     0      -0.137   0.100   0.704  0.00  0.00    +0.000 NA
ATOM      2  N9  UNK     0      -2.281   0.537  -0.160  0.00  0.00    +0.000 NA
ATOM      3  C20 UNK     0      -0.440  -1.217   0.868  0.00  0.00    +0.000 A 
ATOM      4  C22 UNK     0      -1.717  -1.674   0.524  0.00  0.00    +0.000 A 
ATOM      5  C23 UNK     0      -2.645  -0.764   0.006  0.00  0.00    +0.000 A 
ATOM      6  C30 UNK     0      -1.043   0.971   0.190  0.00  0.00    +0.000 A 
ATOM      7  N6  UNK     0       0.519  -2.124   1.434  0.00  0.00    +0.000 N 
ATOM      8  H41 UNK     0       0.163  -3.012   1.857  0.00  0.00    +0.000 HD
ENDROOT
BRANCH   7   9
ATOM      9  C17 UNK     0       1.923  -1.839   1.554  0.00  0.00    +0.000 A 
ATOM     10  C15 UNK     0       2.609  -1.108   0.566  0.00  0.00    +0.000 A 
ATOM     11  C14 UNK     0       3.981  -0.841   0.695  0.00  0.00    +0.000 A 
ATOM     12  C16 UNK     0       4.679  -1.360   1.800  0.00  0.00    +0.000 A 
ATOM     13  C18 UNK     0       4.008  -2.110   2.769  0.00  0.00    +0.000 A 
ATOM     14  C19 UNK     0       2.638  -2.351   2.645  0.00  0.00    +0.000 A 
BRANCH  11  15
ATOM     15  N5  UNK     0       4.657  -0.100  -0.336  0.00  0.00    +0.000 N 
ATOM     16  H36 UNK     0       4.234  -0.117  -1.290  0.00  0.00    +0.000 HD
ATOM     17  C13 UNK     0       5.783   0.763  -0.085  0.00  0.00    +0.000 C 
ATOM     18  O4  UNK     0       5.990   1.194   1.082  0.00  0.00    +0.000 OA
BRANCH  17  19
ATOM     19  C10 UNK     0       6.724   1.216  -1.176  0.00  0.00    +0.000 C 
ATOM     20  C12 UNK     0       6.067   1.744  -2.442  0.00  0.00    +0.000 C 
ATOM     21  C11 UNK     0       6.774   0.394  -2.456  0.00  0.00    +0.000 C 
ENDBRANCH  17  19
ENDBRANCH  11  15
ENDBRANCH   7   9
BRANCH   5  22
ATOM     22  N7  UNK     0      -3.949  -1.217  -0.394  0.00  0.00    +0.000 N 
ATOM     23  H43 UNK     0      -4.085  -2.242  -0.552  0.00  0.00    +0.000 HD
BRANCH  22  24
ATOM     24  C21 UNK     0      -5.040  -0.339  -0.714  0.00  0.00    +0.000 A 
ATOM     25  C25 UNK     0      -5.265   0.845   0.013  0.00  0.00    +0.000 A 
ATOM     26  C24 UNK     0      -6.358   1.677  -0.291  0.00  0.00    +0.000 A 
ATOM     27  C27 UNK     0      -7.210   1.325  -1.352  0.00  0.00    +0.000 A 
ATOM     28  C28 UNK     0      -7.004   0.139  -2.059  0.00  0.00    +0.000 A 
ATOM     29  C26 UNK     0      -5.932  -0.695  -1.735  0.00  0.00    +0.000 A 
BRANCH  26  30
ATOM     30  C29 UNK     0      -6.558   2.970   0.459  0.00  0.00    +0.000 C 
ATOM     31  F1  UNK     0      -7.888   3.354   0.434  0.00  0.00    +0.000 F 
ATOM     32  F2  UNK     0      -5.793   3.960  -0.130  0.00  0.00    +0.000 F 
ATOM     33  F3  UNK     0      -6.174   2.830   1.781  0.00  0.00    +0.000 F 
ENDBRANCH  26  30
ENDBRANCH  22  24
ENDBRANCH   5  22
TORSDOF 6
