REMARK  Name = C:\Users\Maximilian\Desktop\Conformers\converted_pdb\conformers_pdb\VGX_1027_conf_60.pdb
REMARK  6 active torsions:
REMARK  status: ('A' for Active; 'I' for Inactive)
REMARK    1  A    between atoms: C23_5  and  N7_22
REMARK    2  A    between atoms: N6_7  and  C17_9
REMARK    3  A    between atoms: C14_11  and  N5_15
REMARK    4  A    between atoms: C13_17  and  C10_19
REMARK    5  A    between atoms: N7_22  and  C21_24
REMARK    6  A    between atoms: C24_26  and  C29_30
REMARK                            x       y       z     vdW  Elec       q    Type
REMARK                         _______ _______ _______ _____ _____    ______ ____
ROOT
ATOM      1  N8  UNK     0      -0.563   2.057  -1.561  0.00  0.00    +0.000 NA
ATOM      2  N9  UNK     0      -2.765   2.804  -1.202  0.00  0.00    +0.000 NA
ATOM      3  C20 UNK     0      -0.780   0.956  -0.791  0.00  0.00    +0.000 A 
ATOM      4  C22 UNK     0      -2.029   0.776  -0.189  0.00  0.00    +0.000 A 
ATOM      5  C23 UNK     0      -3.040   1.719  -0.431  0.00  0.00    +0.000 A 
ATOM      6  C30 UNK     0      -1.543   2.973  -1.769  0.00  0.00    +0.000 A 
ATOM      7  N6  UNK     0       0.278   0.015  -0.545  0.00  0.00    +0.000 N 
ATOM      8  H41 UNK     0       0.190  -0.616   0.284  0.00  0.00    +0.000 HD
ENDROOT
BRANCH   7   9
ATOM      9  C17 UNK     0       1.498  -0.039  -1.303  0.00  0.00    +0.000 A 
ATOM     10  C15 UNK     0       2.692  -0.405  -0.661  0.00  0.00    +0.000 A 
ATOM     11  C14 UNK     0       3.899  -0.484  -1.380  0.00  0.00    +0.000 A 
ATOM     12  C16 UNK     0       3.887  -0.248  -2.762  0.00  0.00    +0.000 A 
ATOM     13  C18 UNK     0       2.699   0.093  -3.411  0.00  0.00    +0.000 A 
ATOM     14  C19 UNK     0       1.508   0.196  -2.689  0.00  0.00    +0.000 A 
BRANCH  11  15
ATOM     15  N5  UNK     0       5.129  -0.865  -0.741  0.00  0.00    +0.000 N 
ATOM     16  H36 UNK     0       5.836  -1.383  -1.312  0.00  0.00    +0.000 HD
ATOM     17  C13 UNK     0       5.501  -0.473   0.589  0.00  0.00    +0.000 C 
ATOM     18  O4  UNK     0       4.811   0.364   1.232  0.00  0.00    +0.000 OA
BRANCH  17  19
ATOM     19  C10 UNK     0       6.719  -1.070   1.230  0.00  0.00    +0.000 C 
ATOM     20  C12 UNK     0       7.689  -0.064   1.832  0.00  0.00    +0.000 C 
ATOM     21  C11 UNK     0       8.026  -0.750   0.520  0.00  0.00    +0.000 C 
ENDBRANCH  17  19
ENDBRANCH  11  15
ENDBRANCH   7   9
BRANCH   5  22
ATOM     22  N7  UNK     0      -4.337   1.602   0.176  0.00  0.00    +0.000 N 
ATOM     23  H43 UNK     0      -4.857   2.487   0.372  0.00  0.00    +0.000 HD
BRANCH  22  24
ATOM     24  C21 UNK     0      -4.967   0.357   0.523  0.00  0.00    +0.000 A 
ATOM     25  C25 UNK     0      -5.841   0.310   1.620  0.00  0.00    +0.000 A 
ATOM     26  C24 UNK     0      -6.484  -0.889   1.976  0.00  0.00    +0.000 A 
ATOM     27  C27 UNK     0      -6.289  -2.031   1.180  0.00  0.00    +0.000 A 
ATOM     28  C28 UNK     0      -5.439  -1.983   0.073  0.00  0.00    +0.000 A 
ATOM     29  C26 UNK     0      -4.783  -0.796  -0.258  0.00  0.00    +0.000 A 
BRANCH  26  30
ATOM     30  C29 UNK     0      -7.448  -0.922   3.135  0.00  0.00    +0.000 C 
ATOM     31  F1  UNK     0      -7.058  -0.031   4.120  0.00  0.00    +0.000 F 
ATOM     32  F2  UNK     0      -7.501  -2.187   3.693  0.00  0.00    +0.000 F 
ATOM     33  F3  UNK     0      -8.709  -0.574   2.688  0.00  0.00    +0.000 F 
ENDBRANCH  26  30
ENDBRANCH  22  24
ENDBRANCH   5  22
TORSDOF 6
