REMARK  Name = C:\Users\Maximilian\Desktop\Conformers\converted_pdb\conformers_pdb\VGX_1027_conf_77.pdb
REMARK  6 active torsions:
REMARK  status: ('A' for Active; 'I' for Inactive)
REMARK    1  A    between atoms: C23_5  and  N7_22
REMARK    2  A    between atoms: N6_7  and  C17_9
REMARK    3  A    between atoms: C14_11  and  N5_15
REMARK    4  A    between atoms: C13_17  and  C10_19
REMARK    5  A    between atoms: N7_22  and  C21_24
REMARK    6  A    between atoms: C24_26  and  C29_30
REMARK                            x       y       z     vdW  Elec       q    Type
REMARK                         _______ _______ _______ _____ _____    ______ ____
ROOT
ATOM      1  N8  UNK     0      -0.969  -1.260  -3.185  0.00  0.00    +0.000 NA
ATOM      2  N9  UNK     0      -3.055  -0.614  -2.311  0.00  0.00    +0.000 NA
ATOM      3  C20 UNK     0      -0.335  -0.864  -2.049  0.00  0.00    +0.000 A 
ATOM      4  C22 UNK     0      -1.086  -0.295  -1.009  0.00  0.00    +0.000 A 
ATOM      5  C23 UNK     0      -2.474  -0.194  -1.154  0.00  0.00    +0.000 A 
ATOM      6  C30 UNK     0      -2.315  -1.145  -3.318  0.00  0.00    +0.000 A 
ATOM      7  N6  UNK     0       1.094  -0.974  -1.972  0.00  0.00    +0.000 N 
ATOM      8  H41 UNK     0       1.629  -0.939  -2.869  0.00  0.00    +0.000 HD
ENDROOT
BRANCH   7   9
ATOM      9  C17 UNK     0       1.836  -1.131  -0.750  0.00  0.00    +0.000 A 
ATOM     10  C15 UNK     0       3.129  -0.595  -0.654  0.00  0.00    +0.000 A 
ATOM     11  C14 UNK     0       3.887  -0.755   0.520  0.00  0.00    +0.000 A 
ATOM     12  C16 UNK     0       3.356  -1.505   1.580  0.00  0.00    +0.000 A 
ATOM     13  C18 UNK     0       2.078  -2.061   1.482  0.00  0.00    +0.000 A 
ATOM     14  C19 UNK     0       1.321  -1.879   0.323  0.00  0.00    +0.000 A 
BRANCH  11  15
ATOM     15  N5  UNK     0       5.217  -0.218   0.632  0.00  0.00    +0.000 N 
ATOM     16  H36 UNK     0       5.872  -0.701   1.285  0.00  0.00    +0.000 HD
ATOM     17  C13 UNK     0       5.630   1.013   0.008  0.00  0.00    +0.000 C 
ATOM     18  O4  UNK     0       4.761   1.855  -0.345  0.00  0.00    +0.000 OA
BRANCH  17  19
ATOM     19  C10 UNK     0       7.081   1.366  -0.219  0.00  0.00    +0.000 C 
ATOM     20  C12 UNK     0       8.093   0.229  -0.226  0.00  0.00    +0.000 C 
ATOM     21  C11 UNK     0       8.007   1.168   0.971  0.00  0.00    +0.000 C 
ENDBRANCH  17  19
ENDBRANCH  11  15
ENDBRANCH   7   9
BRANCH   5  22
ATOM     22  N7  UNK     0      -3.262   0.404  -0.113  0.00  0.00    +0.000 N 
ATOM     23  H43 UNK     0      -2.772   0.995   0.596  0.00  0.00    +0.000 HD
BRANCH  22  24
ATOM     24  C21 UNK     0      -4.697   0.330  -0.049  0.00  0.00    +0.000 A 
ATOM     25  C25 UNK     0      -5.420   1.417   0.468  0.00  0.00    +0.000 A 
ATOM     26  C24 UNK     0      -6.823   1.372   0.555  0.00  0.00    +0.000 A 
ATOM     27  C27 UNK     0      -7.493   0.196   0.174  0.00  0.00    +0.000 A 
ATOM     28  C28 UNK     0      -6.776  -0.896  -0.319  0.00  0.00    +0.000 A 
ATOM     29  C26 UNK     0      -5.386  -0.834  -0.429  0.00  0.00    +0.000 A 
BRANCH  26  30
ATOM     30  C29 UNK     0      -7.584   2.535   1.141  0.00  0.00    +0.000 C 
ATOM     31  F1  UNK     0      -6.974   3.731   0.807  0.00  0.00    +0.000 F 
ATOM     32  F2  UNK     0      -7.614   2.412   2.517  0.00  0.00    +0.000 F 
ATOM     33  F3  UNK     0      -8.883   2.564   0.663  0.00  0.00    +0.000 F 
ENDBRANCH  26  30
ENDBRANCH  22  24
ENDBRANCH   5  22
TORSDOF 6
