REMARK  Name = C:\Users\Maximilian\Desktop\Conformers\converted_pdb\conformers_pdb\VGX_1027_conf_67.pdb
REMARK  6 active torsions:
REMARK  status: ('A' for Active; 'I' for Inactive)
REMARK    1  A    between atoms: C23_5  and  N7_22
REMARK    2  A    between atoms: N6_7  and  C17_9
REMARK    3  A    between atoms: C14_11  and  N5_15
REMARK    4  A    between atoms: C13_17  and  C10_19
REMARK    5  A    between atoms: N7_22  and  C21_24
REMARK    6  A    between atoms: C24_26  and  C29_30
REMARK                            x       y       z     vdW  Elec       q    Type
REMARK                         _______ _______ _______ _____ _____    ______ ____
ROOT
ATOM      1  N8  UNK     0      -0.318  -2.451  -3.920  0.00  0.00    +0.000 NA
ATOM      2  N9  UNK     0      -2.642  -2.648  -3.603  0.00  0.00    +0.000 NA
ATOM      3  C20 UNK     0      -0.186  -1.771  -2.750  0.00  0.00    +0.000 A 
ATOM      4  C22 UNK     0      -1.318  -1.549  -1.955  0.00  0.00    +0.000 A 
ATOM      5  C23 UNK     0      -2.569  -1.973  -2.425  0.00  0.00    +0.000 A 
ATOM      6  C30 UNK     0      -1.531  -2.888  -4.346  0.00  0.00    +0.000 A 
ATOM      7  N6  UNK     0       1.120  -1.349  -2.326  0.00  0.00    +0.000 N 
ATOM      8  H41 UNK     0       1.940  -1.906  -2.659  0.00  0.00    +0.000 HD
ENDROOT
BRANCH   7   9
ATOM      9  C17 UNK     0       1.371  -0.211  -1.484  0.00  0.00    +0.000 A 
ATOM     10  C15 UNK     0       2.463  -0.230  -0.604  0.00  0.00    +0.000 A 
ATOM     11  C14 UNK     0       2.742   0.879   0.217  0.00  0.00    +0.000 A 
ATOM     12  C16 UNK     0       1.900   1.999   0.163  0.00  0.00    +0.000 A 
ATOM     13  C18 UNK     0       0.827   2.034  -0.730  0.00  0.00    +0.000 A 
ATOM     14  C19 UNK     0       0.570   0.942  -1.561  0.00  0.00    +0.000 A 
BRANCH  11  15
ATOM     15  N5  UNK     0       3.837   0.863   1.150  0.00  0.00    +0.000 N 
ATOM     16  H36 UNK     0       3.750   1.470   1.994  0.00  0.00    +0.000 HD
ATOM     17  C13 UNK     0       5.080   0.177   0.905  0.00  0.00    +0.000 C 
ATOM     18  O4  UNK     0       5.401  -0.127  -0.275  0.00  0.00    +0.000 OA
BRANCH  17  19
ATOM     19  C10 UNK     0       6.050  -0.174   2.008  0.00  0.00    +0.000 C 
ATOM     20  C12 UNK     0       5.506  -0.254   3.427  0.00  0.00    +0.000 C 
ATOM     21  C11 UNK     0       6.360   0.933   3.003  0.00  0.00    +0.000 C 
ENDBRANCH  17  19
ENDBRANCH  11  15
ENDBRANCH   7   9
BRANCH   5  22
ATOM     22  N7  UNK     0      -3.766  -1.766  -1.658  0.00  0.00    +0.000 N 
ATOM     23  H43 UNK     0      -4.539  -2.461  -1.772  0.00  0.00    +0.000 HD
BRANCH  22  24
ATOM     24  C21 UNK     0      -3.965  -0.676  -0.741  0.00  0.00    +0.000 A 
ATOM     25  C25 UNK     0      -4.763  -0.868   0.397  0.00  0.00    +0.000 A 
ATOM     26  C24 UNK     0      -4.994   0.186   1.299  0.00  0.00    +0.000 A 
ATOM     27  C27 UNK     0      -4.391   1.433   1.061  0.00  0.00    +0.000 A 
ATOM     28  C28 UNK     0      -3.616   1.636  -0.082  0.00  0.00    +0.000 A 
ATOM     29  C26 UNK     0      -3.415   0.594  -0.989  0.00  0.00    +0.000 A 
BRANCH  26  30
ATOM     30  C29 UNK     0      -5.812  -0.026   2.549  0.00  0.00    +0.000 C 
ATOM     31  F1  UNK     0      -6.582   1.094   2.810  0.00  0.00    +0.000 F 
ATOM     32  F2  UNK     0      -4.963  -0.250   3.617  0.00  0.00    +0.000 F 
ATOM     33  F3  UNK     0      -6.659  -1.112   2.413  0.00  0.00    +0.000 F 
ENDBRANCH  26  30
ENDBRANCH  22  24
ENDBRANCH   5  22
TORSDOF 6
