REMARK  Name = C:\Users\Maximilian\Desktop\Conformers\converted_pdb\conformers_pdb\VGX_1027_conf_21.pdb
REMARK  6 active torsions:
REMARK  status: ('A' for Active; 'I' for Inactive)
REMARK    1  A    between atoms: C23_5  and  N7_22
REMARK    2  A    between atoms: N6_7  and  C17_9
REMARK    3  A    between atoms: C14_11  and  N5_15
REMARK    4  A    between atoms: C13_17  and  C10_19
REMARK    5  A    between atoms: N7_22  and  C21_24
REMARK    6  A    between atoms: C24_26  and  C29_30
REMARK                            x       y       z     vdW  Elec       q    Type
REMARK                         _______ _______ _______ _____ _____    ______ ____
ROOT
ATOM      1  N8  UNK     0       0.681  -2.798  -0.474  0.00  0.00    +0.000 NA
ATOM      2  N9  UNK     0       2.985  -3.236  -0.288  0.00  0.00    +0.000 NA
ATOM      3  C20 UNK     0       0.880  -1.479  -0.206  0.00  0.00    +0.000 A 
ATOM      4  C22 UNK     0       2.177  -1.019   0.046  0.00  0.00    +0.000 A 
ATOM      5  C23 UNK     0       3.244  -1.927  -0.023  0.00  0.00    +0.000 A 
ATOM      6  C30 UNK     0       1.720  -3.671  -0.517  0.00  0.00    +0.000 A 
ATOM      7  N6  UNK     0      -0.232  -0.572  -0.123  0.00  0.00    +0.000 N 
ATOM      8  H41 UNK     0      -0.093   0.328   0.391  0.00  0.00    +0.000 HD
ENDROOT
BRANCH   7   9
ATOM      9  C17 UNK     0      -1.552  -0.871  -0.607  0.00  0.00    +0.000 A 
ATOM     10  C15 UNK     0      -2.667  -0.356   0.071  0.00  0.00    +0.000 A 
ATOM     11  C14 UNK     0      -3.968  -0.598  -0.395  0.00  0.00    +0.000 A 
ATOM     12  C16 UNK     0      -4.148  -1.389  -1.544  0.00  0.00    +0.000 A 
ATOM     13  C18 UNK     0      -3.042  -1.885  -2.237  0.00  0.00    +0.000 A 
ATOM     14  C19 UNK     0      -1.749  -1.619  -1.781  0.00  0.00    +0.000 A 
BRANCH  11  15
ATOM     15  N5  UNK     0      -5.088  -0.085   0.347  0.00  0.00    +0.000 N 
ATOM     16  H36 UNK     0      -4.974   0.042   1.378  0.00  0.00    +0.000 HD
ATOM     17  C13 UNK     0      -6.308   0.380  -0.252  0.00  0.00    +0.000 C 
ATOM     18  O4  UNK     0      -6.416   0.479  -1.504  0.00  0.00    +0.000 OA
BRANCH  17  19
ATOM     19  C10 UNK     0      -7.475   0.742   0.618  0.00  0.00    +0.000 C 
ATOM     20  C12 UNK     0      -8.096   2.102   0.333  0.00  0.00    +0.000 C 
ATOM     21  C11 UNK     0      -7.220   1.911   1.558  0.00  0.00    +0.000 C 
ENDBRANCH  17  19
ENDBRANCH  11  15
ENDBRANCH   7   9
BRANCH   5  22
ATOM     22  N7  UNK     0       4.595  -1.523   0.249  0.00  0.00    +0.000 N 
ATOM     23  H43 UNK     0       5.241  -2.240   0.648  0.00  0.00    +0.000 HD
BRANCH  22  24
ATOM     24  C21 UNK     0       5.118  -0.206   0.002  0.00  0.00    +0.000 A 
ATOM     25  C25 UNK     0       6.138   0.295   0.825  0.00  0.00    +0.000 A 
ATOM     26  C24 UNK     0       6.681   1.573   0.600  0.00  0.00    +0.000 A 
ATOM     27  C27 UNK     0       6.233   2.321  -0.502  0.00  0.00    +0.000 A 
ATOM     28  C28 UNK     0       5.235   1.816  -1.339  0.00  0.00    +0.000 A 
ATOM     29  C26 UNK     0       4.681   0.558  -1.093  0.00  0.00    +0.000 A 
BRANCH  26  30
ATOM     30  C29 UNK     0       7.800   2.087   1.470  0.00  0.00    +0.000 C 
ATOM     31  F1  UNK     0       7.808   3.471   1.494  0.00  0.00    +0.000 F 
ATOM     32  F2  UNK     0       9.009   1.639   0.970  0.00  0.00    +0.000 F 
ATOM     33  F3  UNK     0       7.654   1.633   2.769  0.00  0.00    +0.000 F 
ENDBRANCH  26  30
ENDBRANCH  22  24
ENDBRANCH   5  22
TORSDOF 6
