REMARK  Name = C:\Users\Maximilian\Desktop\Conformers\converted_pdb\conformers_pdb\VGX_1027_conf_72.pdb
REMARK  6 active torsions:
REMARK  status: ('A' for Active; 'I' for Inactive)
REMARK    1  A    between atoms: C23_5  and  N7_22
REMARK    2  A    between atoms: N6_7  and  C17_9
REMARK    3  A    between atoms: C14_11  and  N5_15
REMARK    4  A    between atoms: C13_17  and  C10_19
REMARK    5  A    between atoms: N7_22  and  C21_24
REMARK    6  A    between atoms: C24_26  and  C29_30
REMARK                            x       y       z     vdW  Elec       q    Type
REMARK                         _______ _______ _______ _____ _____    ______ ____
ROOT
ATOM      1  N8  UNK     0      -0.704   0.915   0.602  0.00  0.00    +0.000 NA
ATOM      2  N9  UNK     0      -2.958   0.317   0.914  0.00  0.00    +0.000 NA
ATOM      3  C20 UNK     0      -0.490  -0.184  -0.172  0.00  0.00    +0.000 A 
ATOM      4  C22 UNK     0      -1.542  -1.077  -0.400  0.00  0.00    +0.000 A 
ATOM      5  C23 UNK     0      -2.798  -0.796   0.148  0.00  0.00    +0.000 A 
ATOM      6  C30 UNK     0      -1.925   1.170   1.138  0.00  0.00    +0.000 A 
ATOM      7  N6  UNK     0       0.815  -0.460  -0.708  0.00  0.00    +0.000 N 
ATOM      8  H41 UNK     0       1.024  -1.438  -1.011  0.00  0.00    +0.000 HD
ENDROOT
BRANCH   7   9
ATOM      9  C17 UNK     0       1.886   0.499  -0.750  0.00  0.00    +0.000 A 
ATOM     10  C15 UNK     0       3.210   0.061  -0.592  0.00  0.00    +0.000 A 
ATOM     11  C14 UNK     0       4.279   0.973  -0.644  0.00  0.00    +0.000 A 
ATOM     12  C16 UNK     0       4.013   2.323  -0.913  0.00  0.00    +0.000 A 
ATOM     13  C18 UNK     0       2.701   2.762  -1.097  0.00  0.00    +0.000 A 
ATOM     14  C19 UNK     0       1.640   1.857  -1.019  0.00  0.00    +0.000 A 
BRANCH  11  15
ATOM     15  N5  UNK     0       5.643   0.541  -0.493  0.00  0.00    +0.000 N 
ATOM     16  H36 UNK     0       6.384   1.077  -1.000  0.00  0.00    +0.000 HD
ATOM     17  C13 UNK     0       6.066  -0.496   0.405  0.00  0.00    +0.000 C 
ATOM     18  O4  UNK     0       5.259  -1.004   1.230  0.00  0.00    +0.000 OA
BRANCH  17  19
ATOM     19  C10 UNK     0       7.480  -0.993   0.358  0.00  0.00    +0.000 C 
ATOM     20  C12 UNK     0       8.190  -1.051   1.703  0.00  0.00    +0.000 C 
ATOM     21  C11 UNK     0       8.526   0.053   0.715  0.00  0.00    +0.000 C 
ENDBRANCH  17  19
ENDBRANCH  11  15
ENDBRANCH   7   9
BRANCH   5  22
ATOM     22  N7  UNK     0      -3.891  -1.707  -0.056  0.00  0.00    +0.000 N 
ATOM     23  H43 UNK     0      -3.666  -2.684  -0.355  0.00  0.00    +0.000 HD
BRANCH  22  24
ATOM     24  C21 UNK     0      -5.264  -1.392   0.229  0.00  0.00    +0.000 A 
ATOM     25  C25 UNK     0      -5.784  -0.106  -0.007  0.00  0.00    +0.000 A 
ATOM     26  C24 UNK     0      -7.132   0.185   0.270  0.00  0.00    +0.000 A 
ATOM     27  C27 UNK     0      -7.973  -0.845   0.726  0.00  0.00    +0.000 A 
ATOM     28  C28 UNK     0      -7.466  -2.129   0.937  0.00  0.00    +0.000 A 
ATOM     29  C26 UNK     0      -6.120  -2.403   0.687  0.00  0.00    +0.000 A 
BRANCH  26  30
ATOM     30  C29 UNK     0      -7.689   1.555  -0.023  0.00  0.00    +0.000 C 
ATOM     31  F1  UNK     0      -8.095   1.609  -1.344  0.00  0.00    +0.000 F 
ATOM     32  F2  UNK     0      -6.728   2.527   0.194  0.00  0.00    +0.000 F 
ATOM     33  F3  UNK     0      -8.773   1.830   0.793  0.00  0.00    +0.000 F 
ENDBRANCH  26  30
ENDBRANCH  22  24
ENDBRANCH   5  22
TORSDOF 6
