REMARK  Name = C:\Users\Maximilian\Desktop\Conformers\converted_pdb\conformers_pdb\Withanoside IV_conf_1.pdb
REMARK  1 active torsions:
REMARK  status: ('A' for Active; 'I' for Inactive)
REMARK    1  A    between atoms: C9_9  and  C13_13
REMARK                            x       y       z     vdW  Elec       q    Type
REMARK                         _______ _______ _______ _____ _____    ______ ____
ROOT
ATOM      1 CL1  UNK     0       4.977  -0.712   0.188  0.00  0.00    +0.000 Cl
ATOM      2 CL2  UNK     0       4.133   2.146   1.425  0.00  0.00    +0.000 Cl
ATOM      3  O3  UNK     0      -2.028  -2.472  -1.341  0.00  0.00    +0.000 OA
ATOM      4  N4  UNK     0       0.052  -1.451  -1.135  0.00  0.00    +0.000 N 
ATOM      5  N5  UNK     0      -0.721   1.195   0.034  0.00  0.00    +0.000 NA
ATOM      6  C6  UNK     0      -1.853  -0.927   0.460  0.00  0.00    +0.000 C 
ATOM      7  C7  UNK     0       0.986  -0.591  -0.458  0.00  0.00    +0.000 A 
ATOM      8  C8  UNK     0       0.615   0.663   0.098  0.00  0.00    +0.000 A 
ATOM      9  C9  UNK     0      -1.838   0.542   0.159  0.00  0.00    +0.000 C 
ATOM     10  C10 UNK     0      -1.298  -1.660  -0.713  0.00  0.00    +0.000 C 
ATOM     11  C11 UNK     0       2.334  -0.981  -0.422  0.00  0.00    +0.000 A 
ATOM     12  C12 UNK     0       1.604   1.486   0.652  0.00  0.00    +0.000 A 
ATOM     13  C13 UNK     0      -3.122   1.304   0.037  0.00  0.00    +0.000 C 
ATOM     14  C14 UNK     0       3.306  -0.163   0.161  0.00  0.00    +0.000 A 
ATOM     15  C15 UNK     0       2.939   1.077   0.699  0.00  0.00    +0.000 A 
ATOM     16  H18 UNK     0       0.417  -2.078  -1.888  0.00  0.00    +0.000 HD
ENDROOT
TORSDOF 0
