REMARK  Name = C:\Users\Maximilian\Desktop\Conformers\converted_pdb\conformers_pdb\Xanthohumol_conf_20.pdb
REMARK  9 active torsions:
REMARK  status: ('A' for Active; 'I' for Inactive)
REMARK    1  A    between atoms: C7_3  and  C8_8
REMARK    2  A    between atoms: C9_4  and  C14_18
REMARK    3  A    between atoms: C11_5  and  C15_6
REMARK    4  A    between atoms: C11_5  and  C16_7
REMARK    5  A    between atoms: C8_8  and  O5_9
REMARK    6  A    between atoms: C8_8  and  C10_11
REMARK    7  A    between atoms: C13_13  and  C17_15
REMARK    8  A    between atoms: C13_13  and  C18_16
REMARK    9  A    between atoms: C14_18  and  O6_19
REMARK                            x       y       z     vdW  Elec       q    Type
REMARK                         _______ _______ _______ _____ _____    ______ ____
ROOT
ATOM      1  O1  UNK     0      -2.140  -1.255   0.577  0.00  0.00    +0.000 OA
ATOM      2  O2  UNK     0      -2.869   0.921   0.175  0.00  0.00    +0.000 OA
ATOM      3  C7  UNK     0      -1.118  -0.613  -0.124  0.00  0.00    +0.000 C 
ATOM      4  C9  UNK     0      -1.549   0.841  -0.270  0.00  0.00    +0.000 C 
ATOM      5  C11 UNK     0      -3.234  -0.368   0.610  0.00  0.00    +0.000 C 
ATOM      6  C15 UNK     0      -3.741  -0.272   2.051  0.00  0.00    +0.000 C 
ATOM      7  C16 UNK     0      -4.343  -0.907  -0.301  0.00  0.00    +0.000 C 
ENDROOT
BRANCH   3   8
ATOM      8  C8  UNK     0       0.217  -0.810   0.645  0.00  0.00    +0.000 C 
BRANCH   8   9
ATOM      9  C10 UNK     0       1.462  -0.299  -0.136  0.00  0.00    +0.000 C 
ATOM     10  O3  UNK     0       2.611  -0.960   0.304  0.00  0.00    +0.000 OA
ATOM     11  C13 UNK     0       3.644   0.002   0.301  0.00  0.00    +0.000 C 
ATOM     12  O4  UNK     0       3.140   1.292   0.032  0.00  0.00    +0.000 OA
ATOM     13  C17 UNK     0       4.317   0.008   1.677  0.00  0.00    +0.000 C 
ATOM     14  C18 UNK     0       4.664  -0.367  -0.780  0.00  0.00    +0.000 C 
ATOM     15  C12 UNK     0       1.755   1.169   0.059  0.00  0.00    +0.000 C 
ENDBRANCH   8   9
BRANCH   8  16
ATOM     16  O5  UNK     0       0.374  -2.175   0.952  0.00  0.00    +0.000 OA
ATOM     17  H33 UNK     0       0.441  -2.669   0.092  0.00  0.00    +0.000 HD
ENDBRANCH   8  16
ENDBRANCH   3   8
BRANCH   4  18
ATOM     18  C14 UNK     0      -1.477   1.325  -1.727  0.00  0.00    +0.000 C 
BRANCH  18  19
ATOM     19  O6  UNK     0      -1.733   2.702  -1.797  0.00  0.00    +0.000 OA
ATOM     20  H40 UNK     0      -2.718   2.812  -1.735  0.00  0.00    +0.000 HD
ENDBRANCH  18  19
ENDBRANCH   4  18
TORSDOF 5
