REMARK  Name = C:\Users\Maximilian\Desktop\Conformers\converted_pdb\conformers_pdb\Xanthohumol_conf_18.pdb
REMARK  9 active torsions:
REMARK  status: ('A' for Active; 'I' for Inactive)
REMARK    1  A    between atoms: C7_3  and  C8_8
REMARK    2  A    between atoms: C9_4  and  C14_18
REMARK    3  A    between atoms: C11_5  and  C15_6
REMARK    4  A    between atoms: C11_5  and  C16_7
REMARK    5  A    between atoms: C8_8  and  O5_9
REMARK    6  A    between atoms: C8_8  and  C10_11
REMARK    7  A    between atoms: C13_13  and  C17_15
REMARK    8  A    between atoms: C13_13  and  C18_16
REMARK    9  A    between atoms: C14_18  and  O6_19
REMARK                            x       y       z     vdW  Elec       q    Type
REMARK                         _______ _______ _______ _____ _____    ______ ____
ROOT
ATOM      1  O1  UNK     0      -1.553   0.193  -1.057  0.00  0.00    +0.000 OA
ATOM      2  O2  UNK     0      -2.750  -0.492   0.825  0.00  0.00    +0.000 OA
ATOM      3  C7  UNK     0      -1.207   1.044  -0.010  0.00  0.00    +0.000 C 
ATOM      4  C9  UNK     0      -1.762   0.396   1.249  0.00  0.00    +0.000 C 
ATOM      5  C11 UNK     0      -2.615  -0.603  -0.576  0.00  0.00    +0.000 C 
ATOM      6  C15 UNK     0      -2.335  -2.067  -0.925  0.00  0.00    +0.000 C 
ATOM      7  C16 UNK     0      -3.920  -0.148  -1.239  0.00  0.00    +0.000 C 
ENDROOT
BRANCH   3   8
ATOM      8  C8  UNK     0       0.322   1.319   0.000  0.00  0.00    +0.000 C 
BRANCH   8   9
ATOM      9  C10 UNK     0       1.220   0.051  -0.083  0.00  0.00    +0.000 C 
ATOM     10  O3  UNK     0       2.546   0.395   0.181  0.00  0.00    +0.000 OA
ATOM     11  C13 UNK     0       3.337  -0.345  -0.724  0.00  0.00    +0.000 C 
ATOM     12  O4  UNK     0       2.536  -1.045  -1.651  0.00  0.00    +0.000 OA
ATOM     13  C17 UNK     0       4.250   0.621  -1.485  0.00  0.00    +0.000 C 
ATOM     14  C18 UNK     0       4.179  -1.353   0.063  0.00  0.00    +0.000 C 
ATOM     15  C12 UNK     0       1.236  -0.593  -1.449  0.00  0.00    +0.000 C 
ENDBRANCH   8   9
BRANCH   8  16
ATOM     16  O5  UNK     0       0.667   2.109   1.113  0.00  0.00    +0.000 OA
ATOM     17  H33 UNK     0       0.696   1.519   1.910  0.00  0.00    +0.000 HD
ENDBRANCH   8  16
ENDBRANCH   3   8
BRANCH   4  18
ATOM     18  C14 UNK     0      -2.377   1.420   2.216  0.00  0.00    +0.000 C 
BRANCH  18  19
ATOM     19  O6  UNK     0      -2.866   0.776   3.362  0.00  0.00    +0.000 OA
ATOM     20  H40 UNK     0      -2.076   0.553   3.921  0.00  0.00    +0.000 HD
ENDBRANCH  18  19
ENDBRANCH   4  18
TORSDOF 5
