REMARK  Name = C:\Users\Maximilian\Desktop\Conformers\converted_pdb\conformers_pdb\Xanthohumol_conf_42.pdb
REMARK  9 active torsions:
REMARK  status: ('A' for Active; 'I' for Inactive)
REMARK    1  A    between atoms: C7_3  and  C8_8
REMARK    2  A    between atoms: C9_4  and  C14_18
REMARK    3  A    between atoms: C11_5  and  C15_6
REMARK    4  A    between atoms: C11_5  and  C16_7
REMARK    5  A    between atoms: C8_8  and  O5_9
REMARK    6  A    between atoms: C8_8  and  C10_11
REMARK    7  A    between atoms: C13_13  and  C17_15
REMARK    8  A    between atoms: C13_13  and  C18_16
REMARK    9  A    between atoms: C14_18  and  O6_19
REMARK                            x       y       z     vdW  Elec       q    Type
REMARK                         _______ _______ _______ _____ _____    ______ ____
ROOT
ATOM      1  O1  UNK     0      -1.575  -0.868   0.242  0.00  0.00    +0.000 OA
ATOM      2  O2  UNK     0      -2.360   1.133   1.134  0.00  0.00    +0.000 OA
ATOM      3  C7  UNK     0      -1.370   0.112  -0.728  0.00  0.00    +0.000 C 
ATOM      4  C9  UNK     0      -1.719   1.442  -0.066  0.00  0.00    +0.000 C 
ATOM      5  C11 UNK     0      -2.387  -0.274   1.231  0.00  0.00    +0.000 C 
ATOM      6  C15 UNK     0      -1.860  -0.675   2.611  0.00  0.00    +0.000 C 
ATOM      7  C16 UNK     0      -3.830  -0.766   1.062  0.00  0.00    +0.000 C 
ENDROOT
BRANCH   3   8
ATOM      8  C8  UNK     0       0.069   0.011  -1.307  0.00  0.00    +0.000 C 
BRANCH   8   9
ATOM      9  C10 UNK     0       1.202  -0.036  -0.240  0.00  0.00    +0.000 C 
ATOM     10  O3  UNK     0       2.438   0.167  -0.855  0.00  0.00    +0.000 OA
ATOM     11  C13 UNK     0       3.340  -0.725  -0.237  0.00  0.00    +0.000 C 
ATOM     12  O4  UNK     0       2.676  -1.588   0.659  0.00  0.00    +0.000 OA
ATOM     13  C17 UNK     0       4.025  -1.563  -1.321  0.00  0.00    +0.000 C 
ATOM     14  C18 UNK     0       4.384   0.085   0.538  0.00  0.00    +0.000 C 
ATOM     15  C12 UNK     0       1.317  -1.366   0.465  0.00  0.00    +0.000 C 
ENDBRANCH   8   9
BRANCH   8  16
ATOM     16  O5  UNK     0       0.293   1.039  -2.242  0.00  0.00    +0.000 OA
ATOM     17  H33 UNK     0       0.507   1.869  -1.741  0.00  0.00    +0.000 HD
ENDBRANCH   8  16
ENDBRANCH   3   8
BRANCH   4  18
ATOM     18  C14 UNK     0      -2.657   2.311  -0.917  0.00  0.00    +0.000 C 
BRANCH  18  19
ATOM     19  O6  UNK     0      -2.027   2.693  -2.107  0.00  0.00    +0.000 OA
ATOM     20  H40 UNK     0      -2.688   3.240  -2.605  0.00  0.00    +0.000 HD
ENDBRANCH  18  19
ENDBRANCH   4  18
TORSDOF 5
