REMARK  Name = C:\Users\Maximilian\Desktop\Conformers\converted_pdb\conformers_pdb\Xanthohumol_conf_47.pdb
REMARK  9 active torsions:
REMARK  status: ('A' for Active; 'I' for Inactive)
REMARK    1  A    between atoms: C7_3  and  C8_8
REMARK    2  A    between atoms: C9_4  and  C14_18
REMARK    3  A    between atoms: C11_5  and  C15_6
REMARK    4  A    between atoms: C11_5  and  C16_7
REMARK    5  A    between atoms: C8_8  and  O5_9
REMARK    6  A    between atoms: C8_8  and  C10_11
REMARK    7  A    between atoms: C13_13  and  C17_15
REMARK    8  A    between atoms: C13_13  and  C18_16
REMARK    9  A    between atoms: C14_18  and  O6_19
REMARK                            x       y       z     vdW  Elec       q    Type
REMARK                         _______ _______ _______ _____ _____    ______ ____
ROOT
ATOM      1  O1  UNK     0      -1.533   0.679   0.675  0.00  0.00    +0.000 OA
ATOM      2  O2  UNK     0      -2.693  -0.387  -1.044  0.00  0.00    +0.000 OA
ATOM      3  C7  UNK     0      -1.206  -0.673   0.729  0.00  0.00    +0.000 C 
ATOM      4  C9  UNK     0      -1.735  -1.278  -0.562  0.00  0.00    +0.000 C 
ATOM      5  C11 UNK     0      -2.569   0.791  -0.276  0.00  0.00    +0.000 C 
ATOM      6  C15 UNK     0      -2.255   1.957  -1.217  0.00  0.00    +0.000 C 
ATOM      7  C16 UNK     0      -3.892   1.051   0.454  0.00  0.00    +0.000 C 
ENDROOT
BRANCH   3   8
ATOM      8  C8  UNK     0       0.315  -0.867   0.982  0.00  0.00    +0.000 C 
BRANCH   8   9
ATOM      9  C10 UNK     0       1.248  -0.047   0.045  0.00  0.00    +0.000 C 
ATOM     10  O3  UNK     0       2.565  -0.483   0.193  0.00  0.00    +0.000 OA
ATOM     11  C13 UNK     0       3.372   0.675   0.170  0.00  0.00    +0.000 C 
ATOM     12  O4  UNK     0       2.587   1.847   0.150  0.00  0.00    +0.000 OA
ATOM     13  C17 UNK     0       4.253   0.687   1.423  0.00  0.00    +0.000 C 
ATOM     14  C18 UNK     0       4.246   0.644  -1.087  0.00  0.00    +0.000 C 
ATOM     15  C12 UNK     0       1.276   1.430   0.356  0.00  0.00    +0.000 C 
ENDBRANCH   8   9
BRANCH   8  16
ATOM     16  O5  UNK     0       0.644  -2.235   0.950  0.00  0.00    +0.000 OA
ATOM     17  H33 UNK     0       0.695  -2.515   0.000  0.00  0.00    +0.000 HD
ENDBRANCH   8  16
ENDBRANCH   3   8
BRANCH   4  18
ATOM     18  C14 UNK     0      -2.380  -2.653  -0.348  0.00  0.00    +0.000 C 
BRANCH  18  19
ATOM     19  O6  UNK     0      -2.814  -3.165  -1.577  0.00  0.00    +0.000 OA
ATOM     20  H40 UNK     0      -3.225  -4.046  -1.378  0.00  0.00    +0.000 HD
ENDBRANCH  18  19
ENDBRANCH   4  18
TORSDOF 5
