REMARK  Name = C:\Users\Maximilian\Desktop\Conformers\converted_pdb\conformers_pdb\Xanthohumol_conf_8.pdb
REMARK  9 active torsions:
REMARK  status: ('A' for Active; 'I' for Inactive)
REMARK    1  A    between atoms: C7_3  and  C8_8
REMARK    2  A    between atoms: C9_4  and  C14_18
REMARK    3  A    between atoms: C11_5  and  C15_6
REMARK    4  A    between atoms: C11_5  and  C16_7
REMARK    5  A    between atoms: C8_8  and  O5_9
REMARK    6  A    between atoms: C8_8  and  C10_11
REMARK    7  A    between atoms: C13_13  and  C17_15
REMARK    8  A    between atoms: C13_13  and  C18_16
REMARK    9  A    between atoms: C14_18  and  O6_19
REMARK                            x       y       z     vdW  Elec       q    Type
REMARK                         _______ _______ _______ _____ _____    ______ ____
ROOT
ATOM      1  O1  UNK     0       0.971  -0.689   0.507  0.00  0.00    +0.000 OA
ATOM      2  O2  UNK     0       3.145  -0.254  -0.219  0.00  0.00    +0.000 OA
ATOM      3  C7  UNK     0       1.029   0.641   0.091  0.00  0.00    +0.000 C 
ATOM      4  C9  UNK     0       2.324   0.770  -0.686  0.00  0.00    +0.000 C 
ATOM      5  C11 UNK     0       2.284  -1.194   0.389  0.00  0.00    +0.000 C 
ATOM      6  C15 UNK     0       2.248  -2.464  -0.467  0.00  0.00    +0.000 C 
ATOM      7  C16 UNK     0       2.816  -1.518   1.788  0.00  0.00    +0.000 C 
ENDROOT
BRANCH   3   8
ATOM      8  C8  UNK     0      -0.216   1.002  -0.751  0.00  0.00    +0.000 C 
BRANCH   8   9
ATOM      9  C10 UNK     0      -1.483   1.057   0.129  0.00  0.00    +0.000 C 
ATOM     10  O3  UNK     0      -1.828  -0.215   0.583  0.00  0.00    +0.000 OA
ATOM     11  C13 UNK     0      -3.233  -0.305   0.468  0.00  0.00    +0.000 C 
ATOM     12  O4  UNK     0      -3.774   0.854  -0.131  0.00  0.00    +0.000 OA
ATOM     13  C17 UNK     0      -3.581  -1.522  -0.395  0.00  0.00    +0.000 C 
ATOM     14  C18 UNK     0      -3.834  -0.464   1.867  0.00  0.00    +0.000 C 
ATOM     15  C12 UNK     0      -2.687   1.574  -0.616  0.00  0.00    +0.000 C 
ENDBRANCH   8   9
BRANCH   8  16
ATOM     16  O5  UNK     0      -0.395   0.052  -1.775  0.00  0.00    +0.000 OA
ATOM     17  H33 UNK     0      -0.123   0.479  -2.629  0.00  0.00    +0.000 HD
ENDBRANCH   8  16
ENDBRANCH   3   8
BRANCH   4  18
ATOM     18  C14 UNK     0       3.003   2.126  -0.473  0.00  0.00    +0.000 C 
BRANCH  18  19
ATOM     19  O6  UNK     0       4.175   2.190  -1.236  0.00  0.00    +0.000 OA
ATOM     20  H40 UNK     0       4.569   3.084  -1.061  0.00  0.00    +0.000 HD
ENDBRANCH  18  19
ENDBRANCH   4  18
TORSDOF 5
