REMARK  Name = C:\Users\Maximilian\Desktop\Conformers\converted_pdb\conformers_pdb\Xanthohumol_conf_19.pdb
REMARK  9 active torsions:
REMARK  status: ('A' for Active; 'I' for Inactive)
REMARK    1  A    between atoms: C7_3  and  C8_8
REMARK    2  A    between atoms: C9_4  and  C14_18
REMARK    3  A    between atoms: C11_5  and  C15_6
REMARK    4  A    between atoms: C11_5  and  C16_7
REMARK    5  A    between atoms: C8_8  and  O5_9
REMARK    6  A    between atoms: C8_8  and  C10_11
REMARK    7  A    between atoms: C13_13  and  C17_15
REMARK    8  A    between atoms: C13_13  and  C18_16
REMARK    9  A    between atoms: C14_18  and  O6_19
REMARK                            x       y       z     vdW  Elec       q    Type
REMARK                         _______ _______ _______ _____ _____    ______ ____
ROOT
ATOM      1  O1  UNK     0      -0.941  -0.780  -0.439  0.00  0.00    +0.000 OA
ATOM      2  O2  UNK     0      -3.154  -0.061  -0.612  0.00  0.00    +0.000 OA
ATOM      3  C7  UNK     0      -0.922   0.592  -0.684  0.00  0.00    +0.000 C 
ATOM      4  C9  UNK     0      -2.351   1.072  -0.492  0.00  0.00    +0.000 C 
ATOM      5  C11 UNK     0      -2.296  -1.173  -0.476  0.00  0.00    +0.000 C 
ATOM      6  C15 UNK     0      -2.633  -1.904   0.827  0.00  0.00    +0.000 C 
ATOM      7  C16 UNK     0      -2.506  -2.107  -1.671  0.00  0.00    +0.000 C 
ENDROOT
BRANCH   3   8
ATOM      8  C8  UNK     0       0.086   1.302   0.255  0.00  0.00    +0.000 C 
BRANCH   8   9
ATOM      9  C10 UNK     0       1.547   0.898  -0.061  0.00  0.00    +0.000 C 
ATOM     10  O3  UNK     0       1.779  -0.442   0.246  0.00  0.00    +0.000 OA
ATOM     11  C13 UNK     0       3.056  -0.491   0.845  0.00  0.00    +0.000 C 
ATOM     12  O4  UNK     0       3.595   0.803   1.011  0.00  0.00    +0.000 OA
ATOM     13  C17 UNK     0       2.934  -1.161   2.217  0.00  0.00    +0.000 C 
ATOM     14  C18 UNK     0       3.992  -1.304  -0.054  0.00  0.00    +0.000 C 
ATOM     15  C12 UNK     0       2.557   1.686   0.731  0.00  0.00    +0.000 C 
ENDBRANCH   8   9
BRANCH   8  16
ATOM     16  O5  UNK     0      -0.228   1.080   1.610  0.00  0.00    +0.000 OA
ATOM     17  H33 UNK     0      -0.148   0.108   1.790  0.00  0.00    +0.000 HD
ENDBRANCH   8  16
ENDBRANCH   3   8
BRANCH   4  18
ATOM     18  C14 UNK     0      -2.780   2.112  -1.533  0.00  0.00    +0.000 C 
BRANCH  18  19
ATOM     19  O6  UNK     0      -2.017   3.278  -1.394  0.00  0.00    +0.000 OA
ATOM     20  H40 UNK     0      -2.335   3.901  -2.097  0.00  0.00    +0.000 HD
ENDBRANCH  18  19
ENDBRANCH   4  18
TORSDOF 5
