REMARK  Name = C:\Users\Maximilian\Desktop\Conformers\converted_pdb\conformers_pdb\Xanthohumol_conf_1.pdb
REMARK  9 active torsions:
REMARK  status: ('A' for Active; 'I' for Inactive)
REMARK    1  A    between atoms: C7_3  and  C8_8
REMARK    2  A    between atoms: C9_4  and  C14_18
REMARK    3  A    between atoms: C11_5  and  C15_6
REMARK    4  A    between atoms: C11_5  and  C16_7
REMARK    5  A    between atoms: C8_8  and  O5_9
REMARK    6  A    between atoms: C8_8  and  C10_11
REMARK    7  A    between atoms: C13_13  and  C17_15
REMARK    8  A    between atoms: C13_13  and  C18_16
REMARK    9  A    between atoms: C14_18  and  O6_19
REMARK                            x       y       z     vdW  Elec       q    Type
REMARK                         _______ _______ _______ _____ _____    ______ ____
ROOT
ATOM      1  O1  UNK     0      -1.477   1.049   0.123  0.00  0.00    +0.000 OA
ATOM      2  O2  UNK     0      -3.315  -0.355  -0.183  0.00  0.00    +0.000 OA
ATOM      3  C7  UNK     0      -1.024  -0.269   0.149  0.00  0.00    +0.000 C 
ATOM      4  C9  UNK     0      -2.161  -1.105  -0.400  0.00  0.00    +0.000 C 
ATOM      5  C11 UNK     0      -2.883   0.975   0.014  0.00  0.00    +0.000 C 
ATOM      6  C15 UNK     0      -3.330   1.825  -1.180  0.00  0.00    +0.000 C 
ATOM      7  C16 UNK     0      -3.510   1.511   1.304  0.00  0.00    +0.000 C 
ENDROOT
BRANCH   3   8
ATOM      8  C8  UNK     0       0.285  -0.417  -0.668  0.00  0.00    +0.000 C 
BRANCH   8   9
ATOM      9  C10 UNK     0       1.460   0.369  -0.039  0.00  0.00    +0.000 C 
ATOM     10  O3  UNK     0       2.591   0.265  -0.847  0.00  0.00    +0.000 OA
ATOM     11  C13 UNK     0       3.687   0.118   0.030  0.00  0.00    +0.000 C 
ATOM     12  O4  UNK     0       3.259  -0.006   1.370  0.00  0.00    +0.000 OA
ATOM     13  C17 UNK     0       4.469  -1.140  -0.361  0.00  0.00    +0.000 C 
ATOM     14  C18 UNK     0       4.586   1.353  -0.088  0.00  0.00    +0.000 C 
ATOM     15  C12 UNK     0       1.877  -0.156   1.311  0.00  0.00    +0.000 C 
ENDBRANCH   8   9
BRANCH   8  16
ATOM     16  O5  UNK     0       0.092  -0.016  -2.004  0.00  0.00    +0.000 OA
ATOM     17  H33 UNK     0      -0.088   0.960  -2.006  0.00  0.00    +0.000 HD
ENDBRANCH   8  16
ENDBRANCH   3   8
BRANCH   4  18
ATOM     18  C14 UNK     0      -2.276  -2.467   0.298  0.00  0.00    +0.000 C 
BRANCH  18  19
ATOM     19  O6  UNK     0      -3.290  -3.234  -0.294  0.00  0.00    +0.000 OA
ATOM     20  H40 UNK     0      -4.151  -2.902   0.073  0.00  0.00    +0.000 HD
ENDBRANCH  18  19
ENDBRANCH   4  18
TORSDOF 5
