REMARK  Name = C:\Users\Maximilian\Desktop\Conformers\converted_pdb\conformers_pdb\Xanthohumol_conf_10.pdb
REMARK  9 active torsions:
REMARK  status: ('A' for Active; 'I' for Inactive)
REMARK    1  A    between atoms: C7_3  and  C8_8
REMARK    2  A    between atoms: C9_4  and  C14_18
REMARK    3  A    between atoms: C11_5  and  C15_6
REMARK    4  A    between atoms: C11_5  and  C16_7
REMARK    5  A    between atoms: C8_8  and  O5_9
REMARK    6  A    between atoms: C8_8  and  C10_11
REMARK    7  A    between atoms: C13_13  and  C17_15
REMARK    8  A    between atoms: C13_13  and  C18_16
REMARK    9  A    between atoms: C14_18  and  O6_19
REMARK                            x       y       z     vdW  Elec       q    Type
REMARK                         _______ _______ _______ _____ _____    ______ ____
ROOT
ATOM      1  O1  UNK     0      -0.863   0.753  -0.376  0.00  0.00    +0.000 OA
ATOM      2  O2  UNK     0      -2.825   0.465   0.850  0.00  0.00    +0.000 OA
ATOM      3  C7  UNK     0      -0.744  -0.430   0.348  0.00  0.00    +0.000 C 
ATOM      4  C9  UNK     0      -2.149  -0.754   0.816  0.00  0.00    +0.000 C 
ATOM      5  C11 UNK     0      -2.066   1.352   0.055  0.00  0.00    +0.000 C 
ATOM      6  C15 UNK     0      -2.889   1.742  -1.176  0.00  0.00    +0.000 C 
ATOM      7  C16 UNK     0      -1.733   2.598   0.881  0.00  0.00    +0.000 C 
ENDROOT
BRANCH   3   8
ATOM      8  C8  UNK     0      -0.130  -1.558  -0.520  0.00  0.00    +0.000 C 
BRANCH   8   9
ATOM      9  C10 UNK     0       1.383  -1.375  -0.813  0.00  0.00    +0.000 C 
ATOM     10  O3  UNK     0       2.079  -1.007   0.338  0.00  0.00    +0.000 OA
ATOM     11  C13 UNK     0       2.979   0.009  -0.050  0.00  0.00    +0.000 C 
ATOM     12  O4  UNK     0       2.862   0.306  -1.425  0.00  0.00    +0.000 OA
ATOM     13  C17 UNK     0       2.683   1.275   0.761  0.00  0.00    +0.000 C 
ATOM     14  C18 UNK     0       4.407  -0.468   0.229  0.00  0.00    +0.000 C 
ATOM     15  C12 UNK     0       1.709  -0.339  -1.861  0.00  0.00    +0.000 C 
ENDBRANCH   8   9
BRANCH   8  16
ATOM     16  O5  UNK     0      -0.847  -1.682  -1.724  0.00  0.00    +0.000 OA
ATOM     17  H33 UNK     0      -0.621  -2.571  -2.103  0.00  0.00    +0.000 HD
ENDBRANCH   8  16
ENDBRANCH   3   8
BRANCH   4  18
ATOM     18  C14 UNK     0      -2.171  -1.405   2.206  0.00  0.00    +0.000 C 
BRANCH  18  19
ATOM     19  O6  UNK     0      -3.489  -1.683   2.594  0.00  0.00    +0.000 OA
ATOM     20  H40 UNK     0      -3.770  -2.489   2.087  0.00  0.00    +0.000 HD
ENDBRANCH  18  19
ENDBRANCH   4  18
TORSDOF 5
