REMARK  Name = C:\Users\Maximilian\Desktop\Conformers\converted_pdb\conformers_pdb\Xanthohumol_conf_11.pdb
REMARK  9 active torsions:
REMARK  status: ('A' for Active; 'I' for Inactive)
REMARK    1  A    between atoms: C7_3  and  C8_8
REMARK    2  A    between atoms: C9_4  and  C14_18
REMARK    3  A    between atoms: C11_5  and  C15_6
REMARK    4  A    between atoms: C11_5  and  C16_7
REMARK    5  A    between atoms: C8_8  and  O5_9
REMARK    6  A    between atoms: C8_8  and  C10_11
REMARK    7  A    between atoms: C13_13  and  C17_15
REMARK    8  A    between atoms: C13_13  and  C18_16
REMARK    9  A    between atoms: C14_18  and  O6_19
REMARK                            x       y       z     vdW  Elec       q    Type
REMARK                         _______ _______ _______ _____ _____    ______ ____
ROOT
ATOM      1  O1  UNK     0       1.848  -0.298   0.996  0.00  0.00    +0.000 OA
ATOM      2  O2  UNK     0       2.168  -0.079  -1.307  0.00  0.00    +0.000 OA
ATOM      3  C7  UNK     0       1.320   0.935   0.614  0.00  0.00    +0.000 C 
ATOM      4  C9  UNK     0       1.306   0.940  -0.908  0.00  0.00    +0.000 C 
ATOM      5  C11 UNK     0       2.376  -0.891  -0.172  0.00  0.00    +0.000 C 
ATOM      6  C15 UNK     0       1.693  -2.244  -0.395  0.00  0.00    +0.000 C 
ATOM      7  C16 UNK     0       3.882  -1.090   0.019  0.00  0.00    +0.000 C 
ENDROOT
BRANCH   3   8
ATOM      8  C8  UNK     0      -0.052   1.171   1.303  0.00  0.00    +0.000 C 
BRANCH   8   9
ATOM      9  C10 UNK     0      -1.030  -0.036   1.237  0.00  0.00    +0.000 C 
ATOM     10  O3  UNK     0      -1.508  -0.252  -0.053  0.00  0.00    +0.000 OA
ATOM     11  C13 UNK     0      -2.858  -0.635   0.093  0.00  0.00    +0.000 C 
ATOM     12  O4  UNK     0      -3.290  -0.488   1.429  0.00  0.00    +0.000 OA
ATOM     13  C17 UNK     0      -3.722   0.251  -0.810  0.00  0.00    +0.000 C 
ATOM     14  C18 UNK     0      -3.003  -2.104  -0.317  0.00  0.00    +0.000 C 
ATOM     15  C12 UNK     0      -2.252   0.158   2.094  0.00  0.00    +0.000 C 
ENDBRANCH   8   9
BRANCH   8  16
ATOM     16  O5  UNK     0      -0.647   2.366   0.854  0.00  0.00    +0.000 OA
ATOM     17  H33 UNK     0      -1.009   2.209  -0.055  0.00  0.00    +0.000 HD
ENDBRANCH   8  16
ENDBRANCH   3   8
BRANCH   4  18
ATOM     18  C14 UNK     0       1.767   2.274  -1.510  0.00  0.00    +0.000 C 
BRANCH  18  19
ATOM     19  O6  UNK     0       3.112   2.516  -1.196  0.00  0.00    +0.000 OA
ATOM     20  H40 UNK     0       3.338   3.389  -1.610  0.00  0.00    +0.000 HD
ENDBRANCH  18  19
ENDBRANCH   4  18
TORSDOF 5
