REMARK  Name = C:\Users\Maximilian\Desktop\Conformers\converted_pdb\conformers_pdb\Xanthohumol_conf_38.pdb
REMARK  9 active torsions:
REMARK  status: ('A' for Active; 'I' for Inactive)
REMARK    1  A    between atoms: C7_3  and  C8_8
REMARK    2  A    between atoms: C9_4  and  C14_18
REMARK    3  A    between atoms: C11_5  and  C15_6
REMARK    4  A    between atoms: C11_5  and  C16_7
REMARK    5  A    between atoms: C8_8  and  O5_9
REMARK    6  A    between atoms: C8_8  and  C10_11
REMARK    7  A    between atoms: C13_13  and  C17_15
REMARK    8  A    between atoms: C13_13  and  C18_16
REMARK    9  A    between atoms: C14_18  and  O6_19
REMARK                            x       y       z     vdW  Elec       q    Type
REMARK                         _______ _______ _______ _____ _____    ______ ____
ROOT
ATOM      1  O1  UNK     0      -0.855  -0.189  -0.837  0.00  0.00    +0.000 OA
ATOM      2  O2  UNK     0      -2.933   0.318   0.089  0.00  0.00    +0.000 OA
ATOM      3  C7  UNK     0      -0.699  -0.114   0.544  0.00  0.00    +0.000 C 
ATOM      4  C9  UNK     0      -2.106  -0.154   1.107  0.00  0.00    +0.000 C 
ATOM      5  C11 UNK     0      -2.179   0.220  -1.101  0.00  0.00    +0.000 C 
ATOM      6  C15 UNK     0      -2.838  -0.811  -2.022  0.00  0.00    +0.000 C 
ATOM      7  C16 UNK     0      -2.148   1.591  -1.783  0.00  0.00    +0.000 C 
ENDROOT
BRANCH   3   8
ATOM      8  C8  UNK     0       0.188  -1.271   1.071  0.00  0.00    +0.000 C 
BRANCH   8   9
ATOM      9  C10 UNK     0       1.691  -1.126   0.712  0.00  0.00    +0.000 C 
ATOM     10  O3  UNK     0       2.141   0.175   0.936  0.00  0.00    +0.000 OA
ATOM     11  C13 UNK     0       2.950   0.512  -0.171  0.00  0.00    +0.000 C 
ATOM     12  O4  UNK     0       3.014  -0.545  -1.105  0.00  0.00    +0.000 OA
ATOM     13  C17 UNK     0       2.364   1.751  -0.858  0.00  0.00    +0.000 C 
ATOM     14  C18 UNK     0       4.366   0.811   0.329  0.00  0.00    +0.000 C 
ATOM     15  C12 UNK     0       2.040  -1.460  -0.718  0.00  0.00    +0.000 C 
ENDBRANCH   8   9
BRANCH   8  16
ATOM     16  O5  UNK     0      -0.306  -2.503   0.608  0.00  0.00    +0.000 OA
ATOM     17  H33 UNK     0       0.093  -3.207   1.183  0.00  0.00    +0.000 HD
ENDBRANCH   8  16
ENDBRANCH   3   8
BRANCH   4  18
ATOM     18  C14 UNK     0      -2.262   0.719   2.360  0.00  0.00    +0.000 C 
BRANCH  18  19
ATOM     19  O6  UNK     0      -3.555   0.589   2.887  0.00  0.00    +0.000 OA
ATOM     20  H40 UNK     0      -4.147   1.165   2.336  0.00  0.00    +0.000 HD
ENDBRANCH  18  19
ENDBRANCH   4  18
TORSDOF 5
