REMARK  Name = C:\Users\Maximilian\Desktop\Conformers\converted_pdb\conformers_pdb\Xanthohumol_conf_12.pdb
REMARK  9 active torsions:
REMARK  status: ('A' for Active; 'I' for Inactive)
REMARK    1  A    between atoms: C7_3  and  C8_8
REMARK    2  A    between atoms: C9_4  and  C14_18
REMARK    3  A    between atoms: C11_5  and  C15_6
REMARK    4  A    between atoms: C11_5  and  C16_7
REMARK    5  A    between atoms: C8_8  and  O5_9
REMARK    6  A    between atoms: C8_8  and  C10_11
REMARK    7  A    between atoms: C13_13  and  C17_15
REMARK    8  A    between atoms: C13_13  and  C18_16
REMARK    9  A    between atoms: C14_18  and  O6_19
REMARK                            x       y       z     vdW  Elec       q    Type
REMARK                         _______ _______ _______ _____ _____    ______ ____
ROOT
ATOM      1  O1  UNK     0       1.523  -0.750  -0.720  0.00  0.00    +0.000 OA
ATOM      2  O2  UNK     0       3.250   0.749  -0.261  0.00  0.00    +0.000 OA
ATOM      3  C7  UNK     0       1.044   0.195   0.185  0.00  0.00    +0.000 C 
ATOM      4  C9  UNK     0       2.057   1.323   0.171  0.00  0.00    +0.000 C 
ATOM      5  C11 UNK     0       2.893  -0.458  -0.901  0.00  0.00    +0.000 C 
ATOM      6  C15 UNK     0       3.175  -0.327  -2.401  0.00  0.00    +0.000 C 
ATOM      7  C16 UNK     0       3.726  -1.597  -0.307  0.00  0.00    +0.000 C 
ENDROOT
BRANCH   3   8
ATOM      8  C8  UNK     0      -0.375   0.659  -0.216  0.00  0.00    +0.000 C 
BRANCH   8   9
ATOM      9  C10 UNK     0      -1.409  -0.479  -0.067  0.00  0.00    +0.000 C 
ATOM     10  O3  UNK     0      -2.661  -0.051  -0.510  0.00  0.00    +0.000 OA
ATOM     11  C13 UNK     0      -3.602  -0.588   0.395  0.00  0.00    +0.000 C 
ATOM     12  O4  UNK     0      -2.963  -1.240   1.472  0.00  0.00    +0.000 OA
ATOM     13  C17 UNK     0      -4.466   0.551   0.945  0.00  0.00    +0.000 C 
ATOM     14  C18 UNK     0      -4.479  -1.602  -0.345  0.00  0.00    +0.000 C 
ATOM     15  C12 UNK     0      -1.614  -0.921   1.359  0.00  0.00    +0.000 C 
ENDBRANCH   8   9
BRANCH   8  16
ATOM     16  O5  UNK     0      -0.357   1.098  -1.553  0.00  0.00    +0.000 OA
ATOM     17  H33 UNK     0      -1.097   1.751  -1.655  0.00  0.00    +0.000 HD
ENDBRANCH   8  16
ENDBRANCH   3   8
BRANCH   4  18
ATOM     18  C14 UNK     0       2.245   1.957   1.556  0.00  0.00    +0.000 C 
BRANCH  18  19
ATOM     19  O6  UNK     0       3.129   3.043   1.480  0.00  0.00    +0.000 OA
ATOM     20  H40 UNK     0       4.046   2.664   1.458  0.00  0.00    +0.000 HD
ENDBRANCH  18  19
ENDBRANCH   4  18
TORSDOF 5
