REMARK  Name = C:\Users\Maximilian\Desktop\Conformers\converted_pdb\conformers_pdb\Xanthohumol_conf_5.pdb
REMARK  9 active torsions:
REMARK  status: ('A' for Active; 'I' for Inactive)
REMARK    1  A    between atoms: C7_3  and  C8_8
REMARK    2  A    between atoms: C9_4  and  C14_18
REMARK    3  A    between atoms: C11_5  and  C15_6
REMARK    4  A    between atoms: C11_5  and  C16_7
REMARK    5  A    between atoms: C8_8  and  O5_9
REMARK    6  A    between atoms: C8_8  and  C10_11
REMARK    7  A    between atoms: C13_13  and  C17_15
REMARK    8  A    between atoms: C13_13  and  C18_16
REMARK    9  A    between atoms: C14_18  and  O6_19
REMARK                            x       y       z     vdW  Elec       q    Type
REMARK                         _______ _______ _______ _____ _____    ______ ____
ROOT
ATOM      1  O1  UNK     0      -0.942  -0.707  -0.486  0.00  0.00    +0.000 OA
ATOM      2  O2  UNK     0      -3.168  -0.090  -0.156  0.00  0.00    +0.000 OA
ATOM      3  C7  UNK     0      -0.994   0.683  -0.383  0.00  0.00    +0.000 C 
ATOM      4  C9  UNK     0      -2.368   1.003   0.171  0.00  0.00    +0.000 C 
ATOM      5  C11 UNK     0      -2.280  -1.154  -0.429  0.00  0.00    +0.000 C 
ATOM      6  C15 UNK     0      -2.402  -2.203   0.680  0.00  0.00    +0.000 C 
ATOM      7  C16 UNK     0      -2.652  -1.772  -1.780  0.00  0.00    +0.000 C 
ENDROOT
BRANCH   3   8
ATOM      8  C8  UNK     0       0.155   1.217   0.509  0.00  0.00    +0.000 C 
BRANCH   8   9
ATOM      9  C10 UNK     0       1.539   1.006  -0.152  0.00  0.00    +0.000 C 
ATOM     10  O3  UNK     0       1.859  -0.348  -0.236  0.00  0.00    +0.000 OA
ATOM     11  C13 UNK     0       3.228  -0.448   0.095  0.00  0.00    +0.000 C 
ATOM     12  O4  UNK     0       3.756   0.803   0.482  0.00  0.00    +0.000 OA
ATOM     13  C17 UNK     0       3.384  -1.436   1.256  0.00  0.00    +0.000 C 
ATOM     14  C18 UNK     0       3.997  -0.952  -1.129  0.00  0.00    +0.000 C 
ATOM     15  C12 UNK     0       2.661   1.651   0.620  0.00  0.00    +0.000 C 
ENDBRANCH   8   9
BRANCH   8  16
ATOM     16  O5  UNK     0       0.110   0.654   1.800  0.00  0.00    +0.000 OA
ATOM     17  H33 UNK     0       0.241  -0.326   1.713  0.00  0.00    +0.000 HD
ENDBRANCH   8  16
ENDBRANCH   3   8
BRANCH   4  18
ATOM     18  C14 UNK     0      -2.958   2.283  -0.429  0.00  0.00    +0.000 C 
BRANCH  18  19
ATOM     19  O6  UNK     0      -4.212   2.534   0.142  0.00  0.00    +0.000 OA
ATOM     20  H40 UNK     0      -4.544   3.369  -0.280  0.00  0.00    +0.000 HD
ENDBRANCH  18  19
ENDBRANCH   4  18
TORSDOF 5
