REMARK  Name = C:\Users\Maximilian\Desktop\Conformers\converted_pdb\conformers_pdb\Xanthohumol_conf_37.pdb
REMARK  9 active torsions:
REMARK  status: ('A' for Active; 'I' for Inactive)
REMARK    1  A    between atoms: C7_3  and  C8_8
REMARK    2  A    between atoms: C9_4  and  C14_18
REMARK    3  A    between atoms: C11_5  and  C15_6
REMARK    4  A    between atoms: C11_5  and  C16_7
REMARK    5  A    between atoms: C8_8  and  O5_9
REMARK    6  A    between atoms: C8_8  and  C10_11
REMARK    7  A    between atoms: C13_13  and  C17_15
REMARK    8  A    between atoms: C13_13  and  C18_16
REMARK    9  A    between atoms: C14_18  and  O6_19
REMARK                            x       y       z     vdW  Elec       q    Type
REMARK                         _______ _______ _______ _____ _____    ______ ____
ROOT
ATOM      1  O1  UNK     0      -2.037   0.433   1.571  0.00  0.00    +0.000 OA
ATOM      2  O2  UNK     0      -3.022  -0.137  -0.457  0.00  0.00    +0.000 OA
ATOM      3  C7  UNK     0      -1.082  -0.285   0.848  0.00  0.00    +0.000 C 
ATOM      4  C9  UNK     0      -1.697  -0.562  -0.519  0.00  0.00    +0.000 C 
ATOM      5  C11 UNK     0      -3.141   0.629   0.717  0.00  0.00    +0.000 C 
ATOM      6  C15 UNK     0      -3.231   2.114   0.344  0.00  0.00    +0.000 C 
ATOM      7  C16 UNK     0      -4.410   0.198   1.455  0.00  0.00    +0.000 C 
ENDROOT
BRANCH   3   8
ATOM      8  C8  UNK     0       0.241   0.527   0.803  0.00  0.00    +0.000 C 
BRANCH   8   9
ATOM      9  C10 UNK     0       1.423  -0.282   0.202  0.00  0.00    +0.000 C 
ATOM     10  O3  UNK     0       2.638   0.230   0.661  0.00  0.00    +0.000 OA
ATOM     11  C13 UNK     0       3.535   0.154  -0.427  0.00  0.00    +0.000 C 
ATOM     12  O4  UNK     0       2.872  -0.242  -1.607  0.00  0.00    +0.000 OA
ATOM     13  C17 UNK     0       4.162   1.535  -0.647  0.00  0.00    +0.000 C 
ATOM     14  C18 UNK     0       4.624  -0.872  -0.102  0.00  0.00    +0.000 C 
ATOM     15  C12 UNK     0       1.515  -0.220  -1.304  0.00  0.00    +0.000 C 
ENDBRANCH   8   9
BRANCH   8  16
ATOM     16  O5  UNK     0       0.581   0.893   2.119  0.00  0.00    +0.000 OA
ATOM     17  H33 UNK     0       0.098   1.736   2.326  0.00  0.00    +0.000 HD
ENDBRANCH   8  16
ENDBRANCH   3   8
BRANCH   4  18
ATOM     18  C14 UNK     0      -1.665  -2.056  -0.877  0.00  0.00    +0.000 C 
BRANCH  18  19
ATOM     19  O6  UNK     0      -2.174  -2.260  -2.167  0.00  0.00    +0.000 OA
ATOM     20  H40 UNK     0      -1.461  -1.982  -2.800  0.00  0.00    +0.000 HD
ENDBRANCH  18  19
ENDBRANCH   4  18
TORSDOF 5
