REMARK  Name = C:\Users\Maximilian\Desktop\Conformers\converted_pdb\conformers_pdb\Xanthohumol_conf_9.pdb
REMARK  9 active torsions:
REMARK  status: ('A' for Active; 'I' for Inactive)
REMARK    1  A    between atoms: C7_3  and  C8_8
REMARK    2  A    between atoms: C9_4  and  C14_18
REMARK    3  A    between atoms: C11_5  and  C15_6
REMARK    4  A    between atoms: C11_5  and  C16_7
REMARK    5  A    between atoms: C8_8  and  O5_9
REMARK    6  A    between atoms: C8_8  and  C10_11
REMARK    7  A    between atoms: C13_13  and  C17_15
REMARK    8  A    between atoms: C13_13  and  C18_16
REMARK    9  A    between atoms: C14_18  and  O6_19
REMARK                            x       y       z     vdW  Elec       q    Type
REMARK                         _______ _______ _______ _____ _____    ______ ____
ROOT
ATOM      1  O1  UNK     0      -1.446  -0.271   0.963  0.00  0.00    +0.000 OA
ATOM      2  O2  UNK     0      -2.765   0.156  -0.914  0.00  0.00    +0.000 OA
ATOM      3  C7  UNK     0      -1.040  -1.149  -0.040  0.00  0.00    +0.000 C 
ATOM      4  C9  UNK     0      -1.703  -0.653  -1.316  0.00  0.00    +0.000 C 
ATOM      5  C11 UNK     0      -2.597   0.381   0.469  0.00  0.00    +0.000 C 
ATOM      6  C15 UNK     0      -2.454   1.887   0.705  0.00  0.00    +0.000 C 
ATOM      7  C16 UNK     0      -3.827  -0.149   1.214  0.00  0.00    +0.000 C 
ENDROOT
BRANCH   3   8
ATOM      8  C8  UNK     0       0.510  -1.254  -0.091  0.00  0.00    +0.000 C 
BRANCH   8   9
ATOM      9  C10 UNK     0       1.262   0.109  -0.117  0.00  0.00    +0.000 C 
ATOM     10  O3  UNK     0       2.607  -0.102  -0.418  0.00  0.00    +0.000 OA
ATOM     11  C13 UNK     0       3.342   0.774   0.411  0.00  0.00    +0.000 C 
ATOM     12  O4  UNK     0       2.501   1.436   1.330  0.00  0.00    +0.000 OA
ATOM     13  C17 UNK     0       4.384  -0.038   1.186  0.00  0.00    +0.000 C 
ATOM     14  C18 UNK     0       4.037   1.820  -0.466  0.00  0.00    +0.000 C 
ATOM     15  C12 UNK     0       1.254   0.833   1.208  0.00  0.00    +0.000 C 
ENDBRANCH   8   9
BRANCH   8  16
ATOM     16  O5  UNK     0       0.907  -2.070  -1.166  0.00  0.00    +0.000 OA
ATOM     17  H33 UNK     0       0.851  -1.531  -1.997  0.00  0.00    +0.000 HD
ENDBRANCH   8  16
ENDBRANCH   3   8
BRANCH   4  18
ATOM     18  C14 UNK     0      -2.224  -1.790  -2.213  0.00  0.00    +0.000 C 
BRANCH  18  19
ATOM     19  O6  UNK     0      -3.218  -2.538  -1.563  0.00  0.00    +0.000 OA
ATOM     20  H40 UNK     0      -4.064  -2.024  -1.646  0.00  0.00    +0.000 HD
ENDBRANCH  18  19
ENDBRANCH   4  18
TORSDOF 5
