REMARK  Name = C:\Users\Maximilian\Desktop\Conformers\converted_pdb\conformers_pdb\Xanthohumol_conf_41.pdb
REMARK  9 active torsions:
REMARK  status: ('A' for Active; 'I' for Inactive)
REMARK    1  A    between atoms: C7_3  and  C8_8
REMARK    2  A    between atoms: C9_4  and  C14_18
REMARK    3  A    between atoms: C11_5  and  C15_6
REMARK    4  A    between atoms: C11_5  and  C16_7
REMARK    5  A    between atoms: C8_8  and  O5_9
REMARK    6  A    between atoms: C8_8  and  C10_11
REMARK    7  A    between atoms: C13_13  and  C17_15
REMARK    8  A    between atoms: C13_13  and  C18_16
REMARK    9  A    between atoms: C14_18  and  O6_19
REMARK                            x       y       z     vdW  Elec       q    Type
REMARK                         _______ _______ _______ _____ _____    ______ ____
ROOT
ATOM      1  O1  UNK     0      -1.039  -0.659  -0.209  0.00  0.00    +0.000 OA
ATOM      2  O2  UNK     0      -3.183   0.104   0.309  0.00  0.00    +0.000 OA
ATOM      3  C7  UNK     0      -1.006   0.735  -0.198  0.00  0.00    +0.000 C 
ATOM      4  C9  UNK     0      -2.300   1.170   0.462  0.00  0.00    +0.000 C 
ATOM      5  C11 UNK     0      -2.385  -1.023   0.010  0.00  0.00    +0.000 C 
ATOM      6  C15 UNK     0      -2.446  -2.001   1.187  0.00  0.00    +0.000 C 
ATOM      7  C16 UNK     0      -2.930  -1.690  -1.256  0.00  0.00    +0.000 C 
ENDROOT
BRANCH   3   8
ATOM      8  C8  UNK     0       0.253   1.253   0.542  0.00  0.00    +0.000 C 
BRANCH   8   9
ATOM      9  C10 UNK     0       1.551   0.922  -0.232  0.00  0.00    +0.000 C 
ATOM     10  O3  UNK     0       1.789  -0.452  -0.256  0.00  0.00    +0.000 OA
ATOM     11  C13 UNK     0       3.176  -0.613  -0.051  0.00  0.00    +0.000 C 
ATOM     12  O4  UNK     0       3.805   0.626   0.198  0.00  0.00    +0.000 OA
ATOM     13  C17 UNK     0       3.395  -1.535   1.152  0.00  0.00    +0.000 C 
ATOM     14  C18 UNK     0       3.792  -1.235  -1.308  0.00  0.00    +0.000 C 
ATOM     15  C12 UNK     0       2.777   1.544   0.384  0.00  0.00    +0.000 C 
ENDBRANCH   8   9
BRANCH   8  16
ATOM     16  O5  UNK     0       0.306   0.775   1.866  0.00  0.00    +0.000 OA
ATOM     17  H33 UNK     0       0.377  -0.214   1.834  0.00  0.00    +0.000 HD
ENDBRANCH   8  16
ENDBRANCH   3   8
BRANCH   4  18
ATOM     18  C14 UNK     0      -2.893   2.442  -0.156  0.00  0.00    +0.000 C 
BRANCH  18  19
ATOM     19  O6  UNK     0      -3.267   2.214  -1.487  0.00  0.00    +0.000 OA
ATOM     20  H40 UNK     0      -3.631   3.074  -1.822  0.00  0.00    +0.000 HD
ENDBRANCH  18  19
ENDBRANCH   4  18
TORSDOF 5
