REMARK  Name = C:\Users\Maximilian\Desktop\Conformers\converted_pdb\conformers_pdb\Xanthohumol_conf_7.pdb
REMARK  9 active torsions:
REMARK  status: ('A' for Active; 'I' for Inactive)
REMARK    1  A    between atoms: C7_3  and  C8_8
REMARK    2  A    between atoms: C9_4  and  C14_18
REMARK    3  A    between atoms: C11_5  and  C15_6
REMARK    4  A    between atoms: C11_5  and  C16_7
REMARK    5  A    between atoms: C8_8  and  O5_9
REMARK    6  A    between atoms: C8_8  and  C10_11
REMARK    7  A    between atoms: C13_13  and  C17_15
REMARK    8  A    between atoms: C13_13  and  C18_16
REMARK    9  A    between atoms: C14_18  and  O6_19
REMARK                            x       y       z     vdW  Elec       q    Type
REMARK                         _______ _______ _______ _____ _____    ______ ____
ROOT
ATOM      1  O1  UNK     0      -1.464  -1.274  -0.066  0.00  0.00    +0.000 OA
ATOM      2  O2  UNK     0      -3.195  -0.238   1.109  0.00  0.00    +0.000 OA
ATOM      3  C7  UNK     0      -1.083   0.043   0.188  0.00  0.00    +0.000 C 
ATOM      4  C9  UNK     0      -2.055   0.554   1.232  0.00  0.00    +0.000 C 
ATOM      5  C11 UNK     0      -2.789  -1.395   0.407  0.00  0.00    +0.000 C 
ATOM      6  C15 UNK     0      -2.868  -2.600   1.348  0.00  0.00    +0.000 C 
ATOM      7  C16 UNK     0      -3.725  -1.600  -0.788  0.00  0.00    +0.000 C 
ENDROOT
BRANCH   3   8
ATOM      8  C8  UNK     0       0.393   0.109   0.659  0.00  0.00    +0.000 C 
BRANCH   8   9
ATOM      9  C10 UNK     0       1.387  -0.263  -0.473  0.00  0.00    +0.000 C 
ATOM     10  O3  UNK     0       2.655  -0.482   0.068  0.00  0.00    +0.000 OA
ATOM     11  C13 UNK     0       3.478   0.571  -0.386  0.00  0.00    +0.000 C 
ATOM     12  O4  UNK     0       2.768   1.454  -1.225  0.00  0.00    +0.000 OA
ATOM     13  C17 UNK     0       3.993   1.352   0.827  0.00  0.00    +0.000 C 
ATOM     14  C18 UNK     0       4.656  -0.021  -1.167  0.00  0.00    +0.000 C 
ATOM     15  C12 UNK     0       1.555   0.832  -1.501  0.00  0.00    +0.000 C 
ENDBRANCH   8   9
BRANCH   8  16
ATOM     16  O5  UNK     0       0.592  -0.717   1.783  0.00  0.00    +0.000 OA
ATOM     17  H33 UNK     0       0.498  -1.660   1.487  0.00  0.00    +0.000 HD
ENDBRANCH   8  16
ENDBRANCH   3   8
BRANCH   4  18
ATOM     18  C14 UNK     0      -2.414   2.036   1.057  0.00  0.00    +0.000 C 
BRANCH  18  19
ATOM     19  O6  UNK     0      -3.155   2.238  -0.119  0.00  0.00    +0.000 OA
ATOM     20  H40 UNK     0      -2.530   2.595  -0.802  0.00  0.00    +0.000 HD
ENDBRANCH  18  19
ENDBRANCH   4  18
TORSDOF 5
