REMARK  Name = C:\Users\Maximilian\Desktop\Conformers\converted_pdb\conformers_pdb\Xanthohumol_conf_23.pdb
REMARK  9 active torsions:
REMARK  status: ('A' for Active; 'I' for Inactive)
REMARK    1  A    between atoms: C7_3  and  C8_8
REMARK    2  A    between atoms: C9_4  and  C14_18
REMARK    3  A    between atoms: C11_5  and  C15_6
REMARK    4  A    between atoms: C11_5  and  C16_7
REMARK    5  A    between atoms: C8_8  and  O5_9
REMARK    6  A    between atoms: C8_8  and  C10_11
REMARK    7  A    between atoms: C13_13  and  C17_15
REMARK    8  A    between atoms: C13_13  and  C18_16
REMARK    9  A    between atoms: C14_18  and  O6_19
REMARK                            x       y       z     vdW  Elec       q    Type
REMARK                         _______ _______ _______ _____ _____    ______ ____
ROOT
ATOM      1  O1  UNK     0      -1.411  -1.098  -0.153  0.00  0.00    +0.000 OA
ATOM      2  O2  UNK     0      -2.785   0.501   0.846  0.00  0.00    +0.000 OA
ATOM      3  C7  UNK     0      -1.230   0.096  -0.847  0.00  0.00    +0.000 C 
ATOM      4  C9  UNK     0      -1.917   1.170  -0.017  0.00  0.00    +0.000 C 
ATOM      5  C11 UNK     0      -2.480  -0.873   0.740  0.00  0.00    +0.000 C 
ATOM      6  C15 UNK     0      -2.086  -1.393   2.125  0.00  0.00    +0.000 C 
ATOM      7  C16 UNK     0      -3.719  -1.620   0.234  0.00  0.00    +0.000 C 
ENDROOT
BRANCH   3   8
ATOM      8  C8  UNK     0       0.274   0.358  -1.129  0.00  0.00    +0.000 C 
BRANCH   8   9
ATOM      9  C10 UNK     0       1.195   0.166   0.108  0.00  0.00    +0.000 C 
ATOM     10  O3  UNK     0       2.457   0.701  -0.151  0.00  0.00    +0.000 OA
ATOM     11  C13 UNK     0       3.394  -0.205   0.388  0.00  0.00    +0.000 C 
ATOM     12  O4  UNK     0       2.761  -1.366   0.878  0.00  0.00    +0.000 OA
ATOM     13  C17 UNK     0       4.385  -0.604  -0.710  0.00  0.00    +0.000 C 
ATOM     14  C18 UNK     0       4.136   0.477   1.541  0.00  0.00    +0.000 C 
ATOM     15  C12 UNK     0       1.437  -1.282   0.463  0.00  0.00    +0.000 C 
ENDBRANCH   8   9
BRANCH   8  16
ATOM     16  O5  UNK     0       0.420   1.663  -1.633  0.00  0.00    +0.000 OA
ATOM     17  H33 UNK     0       1.215   1.664  -2.228  0.00  0.00    +0.000 HD
ENDBRANCH   8  16
ENDBRANCH   3   8
BRANCH   4  18
ATOM     18  C14 UNK     0      -2.712   2.159  -0.878  0.00  0.00    +0.000 C 
BRANCH  18  19
ATOM     19  O6  UNK     0      -3.297   3.132  -0.057  0.00  0.00    +0.000 OA
ATOM     20  H40 UNK     0      -3.799   3.738  -0.663  0.00  0.00    +0.000 HD
ENDBRANCH  18  19
ENDBRANCH   4  18
TORSDOF 5
