REMARK  Name = C:\Users\Maximilian\Desktop\Conformers\converted_pdb\conformers_pdb\Xanthohumol_conf_4.pdb
REMARK  9 active torsions:
REMARK  status: ('A' for Active; 'I' for Inactive)
REMARK    1  A    between atoms: C7_3  and  C8_8
REMARK    2  A    between atoms: C9_4  and  C14_18
REMARK    3  A    between atoms: C11_5  and  C15_6
REMARK    4  A    between atoms: C11_5  and  C16_7
REMARK    5  A    between atoms: C8_8  and  O5_9
REMARK    6  A    between atoms: C8_8  and  C10_11
REMARK    7  A    between atoms: C13_13  and  C17_15
REMARK    8  A    between atoms: C13_13  and  C18_16
REMARK    9  A    between atoms: C14_18  and  O6_19
REMARK                            x       y       z     vdW  Elec       q    Type
REMARK                         _______ _______ _______ _____ _____    ______ ____
ROOT
ATOM      1  O1  UNK     0      -2.061   1.243  -0.554  0.00  0.00    +0.000 OA
ATOM      2  O2  UNK     0      -3.032  -0.766   0.115  0.00  0.00    +0.000 OA
ATOM      3  C7  UNK     0      -1.153   0.602   0.291  0.00  0.00    +0.000 C 
ATOM      4  C9  UNK     0      -1.683  -0.813   0.458  0.00  0.00    +0.000 C 
ATOM      5  C11 UNK     0      -3.222   0.444  -0.583  0.00  0.00    +0.000 C 
ATOM      6  C15 UNK     0      -3.565   0.126  -2.041  0.00  0.00    +0.000 C 
ATOM      7  C16 UNK     0      -4.372   1.215   0.072  0.00  0.00    +0.000 C 
ENDROOT
BRANCH   3   8
ATOM      8  C8  UNK     0       0.267   0.697  -0.328  0.00  0.00    +0.000 C 
BRANCH   8   9
ATOM      9  C10 UNK     0       1.391   0.285   0.670  0.00  0.00    +0.000 C 
ATOM     10  O3  UNK     0       2.567   0.986   0.388  0.00  0.00    +0.000 OA
ATOM     11  C13 UNK     0       3.490   0.048  -0.123  0.00  0.00    +0.000 C 
ATOM     12  O4  UNK     0       2.947  -1.252  -0.132  0.00  0.00    +0.000 OA
ATOM     13  C17 UNK     0       3.852   0.440  -1.558  0.00  0.00    +0.000 C 
ATOM     14  C18 UNK     0       4.745   0.059   0.756  0.00  0.00    +0.000 C 
ATOM     15  C12 UNK     0       1.766  -1.178   0.598  0.00  0.00    +0.000 C 
ENDBRANCH   8   9
BRANCH   8  16
ATOM     16  O5  UNK     0       0.468   2.034  -0.721  0.00  0.00    +0.000 OA
ATOM     17  H33 UNK     0       1.072   2.024  -1.509  0.00  0.00    +0.000 HD
ENDBRANCH   8  16
ENDBRANCH   3   8
BRANCH   4  18
ATOM     18  C14 UNK     0      -1.549  -1.331   1.898  0.00  0.00    +0.000 C 
BRANCH  18  19
ATOM     19  O6  UNK     0      -2.023  -2.647   1.989  0.00  0.00    +0.000 OA
ATOM     20  H40 UNK     0      -1.322  -3.228   1.594  0.00  0.00    +0.000 HD
ENDBRANCH  18  19
ENDBRANCH   4  18
TORSDOF 5
