REMARK  Name = C:\Users\Maximilian\Desktop\Conformers\converted_pdb\conformers_pdb\Xanthohumol_conf_35.pdb
REMARK  9 active torsions:
REMARK  status: ('A' for Active; 'I' for Inactive)
REMARK    1  A    between atoms: C7_3  and  C8_8
REMARK    2  A    between atoms: C9_4  and  C14_18
REMARK    3  A    between atoms: C11_5  and  C15_6
REMARK    4  A    between atoms: C11_5  and  C16_7
REMARK    5  A    between atoms: C8_8  and  O5_9
REMARK    6  A    between atoms: C8_8  and  C10_11
REMARK    7  A    between atoms: C13_13  and  C17_15
REMARK    8  A    between atoms: C13_13  and  C18_16
REMARK    9  A    between atoms: C14_18  and  O6_19
REMARK                            x       y       z     vdW  Elec       q    Type
REMARK                         _______ _______ _______ _____ _____    ______ ____
ROOT
ATOM      1  O1  UNK     0      -1.587  -0.868  -0.526  0.00  0.00    +0.000 OA
ATOM      2  O2  UNK     0      -3.346   0.121   0.646  0.00  0.00    +0.000 OA
ATOM      3  C7  UNK     0      -1.097   0.287   0.081  0.00  0.00    +0.000 C 
ATOM      4  C9  UNK     0      -2.165   0.726   1.068  0.00  0.00    +0.000 C 
ATOM      5  C11 UNK     0      -2.969  -0.907  -0.246  0.00  0.00    +0.000 C 
ATOM      6  C15 UNK     0      -3.306  -2.261   0.387  0.00  0.00    +0.000 C 
ATOM      7  C16 UNK     0      -3.744  -0.732  -1.555  0.00  0.00    +0.000 C 
ENDROOT
BRANCH   3   8
ATOM      8  C8  UNK     0       0.272   0.009   0.753  0.00  0.00    +0.000 C 
BRANCH   8   9
ATOM      9  C10 UNK     0       1.369  -0.346  -0.279  0.00  0.00    +0.000 C 
ATOM     10  O3  UNK     0       2.559  -0.659   0.378  0.00  0.00    +0.000 OA
ATOM     11  C13 UNK     0       3.594  -0.082  -0.390  0.00  0.00    +0.000 C 
ATOM     12  O4  UNK     0       3.074   0.698  -1.446  0.00  0.00    +0.000 OA
ATOM     13  C17 UNK     0       4.443   0.812   0.519  0.00  0.00    +0.000 C 
ATOM     14  C18 UNK     0       4.456  -1.201  -0.980  0.00  0.00    +0.000 C 
ATOM     15  C12 UNK     0       1.707   0.790  -1.210  0.00  0.00    +0.000 C 
ENDBRANCH   8   9
BRANCH   8  16
ATOM     16  O5  UNK     0       0.161  -1.012   1.717  0.00  0.00    +0.000 OA
ATOM     17  H33 UNK     0      -0.048  -1.858   1.241  0.00  0.00    +0.000 HD
ENDBRANCH   8  16
ENDBRANCH   3   8
BRANCH   4  18
ATOM     18  C14 UNK     0      -2.357   2.247   1.106  0.00  0.00    +0.000 C 
BRANCH  18  19
ATOM     19  O6  UNK     0      -1.191   2.869   1.570  0.00  0.00    +0.000 OA
ATOM     20  H40 UNK     0      -1.377   3.844   1.559  0.00  0.00    +0.000 HD
ENDBRANCH  18  19
ENDBRANCH   4  18
TORSDOF 5
