REMARK  Name = C:\Users\Maximilian\Desktop\Conformers\converted_pdb\conformers_pdb\Xanthohumol_conf_2.pdb
REMARK  9 active torsions:
REMARK  status: ('A' for Active; 'I' for Inactive)
REMARK    1  A    between atoms: C7_3  and  C8_8
REMARK    2  A    between atoms: C9_4  and  C14_18
REMARK    3  A    between atoms: C11_5  and  C15_6
REMARK    4  A    between atoms: C11_5  and  C16_7
REMARK    5  A    between atoms: C8_8  and  O5_9
REMARK    6  A    between atoms: C8_8  and  C10_11
REMARK    7  A    between atoms: C13_13  and  C17_15
REMARK    8  A    between atoms: C13_13  and  C18_16
REMARK    9  A    between atoms: C14_18  and  O6_19
REMARK                            x       y       z     vdW  Elec       q    Type
REMARK                         _______ _______ _______ _____ _____    ______ ____
ROOT
ATOM      1  O1  UNK     0       1.635   0.936   0.185  0.00  0.00    +0.000 OA
ATOM      2  O2  UNK     0       3.351  -0.644   0.231  0.00  0.00    +0.000 OA
ATOM      3  C7  UNK     0       1.073  -0.310  -0.091  0.00  0.00    +0.000 C 
ATOM      4  C9  UNK     0       2.141  -1.334   0.249  0.00  0.00    +0.000 C 
ATOM      5  C11 UNK     0       3.026   0.728   0.292  0.00  0.00    +0.000 C 
ATOM      6  C15 UNK     0       3.508   1.293   1.631  0.00  0.00    +0.000 C 
ATOM      7  C16 UNK     0       3.724   1.452  -0.864  0.00  0.00    +0.000 C 
ENDROOT
BRANCH   3   8
ATOM      8  C8  UNK     0      -0.235  -0.507   0.717  0.00  0.00    +0.000 C 
BRANCH   8   9
ATOM      9  C10 UNK     0      -1.342   0.487   0.291  0.00  0.00    +0.000 C 
ATOM     10  O3  UNK     0      -2.469   0.319   1.094  0.00  0.00    +0.000 OA
ATOM     11  C13 UNK     0      -3.583   0.443   0.236  0.00  0.00    +0.000 C 
ATOM     12  O4  UNK     0      -3.181   0.557  -1.113  0.00  0.00    +0.000 OA
ATOM     13  C17 UNK     0      -4.466  -0.800   0.389  0.00  0.00    +0.000 C 
ATOM     14  C18 UNK     0      -4.371   1.697   0.624  0.00  0.00    +0.000 C 
ATOM     15  C12 UNK     0      -1.818   0.283  -1.125  0.00  0.00    +0.000 C 
ENDBRANCH   8   9
BRANCH   8  16
ATOM     16  O5  UNK     0       0.008  -0.402   2.100  0.00  0.00    +0.000 OA
ATOM     17  H33 UNK     0       0.269   0.536   2.293  0.00  0.00    +0.000 HD
ENDBRANCH   8  16
ENDBRANCH   3   8
BRANCH   4  18
ATOM     18  C14 UNK     0       2.201  -2.495  -0.756  0.00  0.00    +0.000 C 
BRANCH  18  19
ATOM     19  O6  UNK     0       0.998  -3.215  -0.763  0.00  0.00    +0.000 OA
ATOM     20  H40 UNK     0       0.982  -3.748   0.075  0.00  0.00    +0.000 HD
ENDBRANCH  18  19
ENDBRANCH   4  18
TORSDOF 5
