REMARK  Name = C:\Users\Maximilian\Desktop\Conformers\converted_pdb\conformers_pdb\Xanthohumol_conf_25.pdb
REMARK  9 active torsions:
REMARK  status: ('A' for Active; 'I' for Inactive)
REMARK    1  A    between atoms: C7_3  and  C8_8
REMARK    2  A    between atoms: C9_4  and  C14_18
REMARK    3  A    between atoms: C11_5  and  C15_6
REMARK    4  A    between atoms: C11_5  and  C16_7
REMARK    5  A    between atoms: C8_8  and  O5_9
REMARK    6  A    between atoms: C8_8  and  C10_11
REMARK    7  A    between atoms: C13_13  and  C17_15
REMARK    8  A    between atoms: C13_13  and  C18_16
REMARK    9  A    between atoms: C14_18  and  O6_19
REMARK                            x       y       z     vdW  Elec       q    Type
REMARK                         _______ _______ _______ _____ _____    ______ ____
ROOT
ATOM      1  O1  UNK     0      -1.896   0.458   1.178  0.00  0.00    +0.000 OA
ATOM      2  O2  UNK     0      -2.473   0.071  -1.047  0.00  0.00    +0.000 OA
ATOM      3  C7  UNK     0      -0.716   0.163   0.490  0.00  0.00    +0.000 C 
ATOM      4  C9  UNK     0      -1.160  -0.365  -0.868  0.00  0.00    +0.000 C 
ATOM      5  C11 UNK     0      -2.923   0.521   0.212  0.00  0.00    +0.000 C 
ATOM      6  C15 UNK     0      -3.399   1.973   0.080  0.00  0.00    +0.000 C 
ATOM      7  C16 UNK     0      -4.087  -0.363   0.671  0.00  0.00    +0.000 C 
ENDROOT
BRANCH   3   8
ATOM      8  C8  UNK     0       0.163   1.443   0.383  0.00  0.00    +0.000 C 
BRANCH   8   9
ATOM      9  C10 UNK     0       1.671   1.148   0.170  0.00  0.00    +0.000 C 
ATOM     10  O3  UNK     0       1.881   0.125  -0.753  0.00  0.00    +0.000 OA
ATOM     11  C13 UNK     0       3.051  -0.539  -0.317  0.00  0.00    +0.000 C 
ATOM     12  O4  UNK     0       3.418  -0.128   0.984  0.00  0.00    +0.000 OA
ATOM     13  C17 UNK     0       2.792  -2.048  -0.300  0.00  0.00    +0.000 C 
ATOM     14  C18 UNK     0       4.196  -0.217  -1.284  0.00  0.00    +0.000 C 
ATOM     15  C12 UNK     0       2.402   0.720   1.415  0.00  0.00    +0.000 C 
ENDBRANCH   8   9
BRANCH   8  16
ATOM     16  O5  UNK     0      -0.004   2.227   1.539  0.00  0.00    +0.000 OA
ATOM     17  H33 UNK     0       0.332   3.136   1.324  0.00  0.00    +0.000 HD
ENDBRANCH   8  16
ENDBRANCH   3   8
BRANCH   4  18
ATOM     18  C14 UNK     0      -1.112  -1.900  -0.942  0.00  0.00    +0.000 C 
BRANCH  18  19
ATOM     19  O6  UNK     0      -1.580  -2.345  -2.186  0.00  0.00    +0.000 OA
ATOM     20  H40 UNK     0      -2.572  -2.356  -2.131  0.00  0.00    +0.000 HD
ENDBRANCH  18  19
ENDBRANCH   4  18
TORSDOF 5
