REMARK  Name = C:\Users\Maximilian\Desktop\Conformers\converted_pdb\conformers_pdb\Xanthohumol_conf_17.pdb
REMARK  9 active torsions:
REMARK  status: ('A' for Active; 'I' for Inactive)
REMARK    1  A    between atoms: C7_3  and  C8_8
REMARK    2  A    between atoms: C9_4  and  C14_18
REMARK    3  A    between atoms: C11_5  and  C15_6
REMARK    4  A    between atoms: C11_5  and  C16_7
REMARK    5  A    between atoms: C8_8  and  O5_9
REMARK    6  A    between atoms: C8_8  and  C10_11
REMARK    7  A    between atoms: C13_13  and  C17_15
REMARK    8  A    between atoms: C13_13  and  C18_16
REMARK    9  A    between atoms: C14_18  and  O6_19
REMARK                            x       y       z     vdW  Elec       q    Type
REMARK                         _______ _______ _______ _____ _____    ______ ____
ROOT
ATOM      1  O1  UNK     0      -1.482  -1.116  -0.045  0.00  0.00    +0.000 OA
ATOM      2  O2  UNK     0      -3.328   0.158  -0.693  0.00  0.00    +0.000 OA
ATOM      3  C7  UNK     0      -1.021   0.140  -0.438  0.00  0.00    +0.000 C 
ATOM      4  C9  UNK     0      -2.251   1.023  -0.507  0.00  0.00    +0.000 C 
ATOM      5  C11 UNK     0      -2.869  -1.122  -0.308  0.00  0.00    +0.000 C 
ATOM      6  C15 UNK     0      -3.610  -1.554   0.961  0.00  0.00    +0.000 C 
ATOM      7  C16 UNK     0      -3.153  -2.109  -1.444  0.00  0.00    +0.000 C 
ENDROOT
BRANCH   3   8
ATOM      8  C8  UNK     0       0.049   0.670   0.550  0.00  0.00    +0.000 C 
BRANCH   8   9
ATOM      9  C10 UNK     0       1.337  -0.188   0.534  0.00  0.00    +0.000 C 
ATOM     10  O3  UNK     0       2.235   0.282   1.490  0.00  0.00    +0.000 OA
ATOM     11  C13 UNK     0       3.515   0.204   0.898  0.00  0.00    +0.000 C 
ATOM     12  O4  UNK     0       3.429  -0.181  -0.458  0.00  0.00    +0.000 OA
ATOM     13  C17 UNK     0       4.184   1.579   0.983  0.00  0.00    +0.000 C 
ATOM     14  C18 UNK     0       4.349  -0.834   1.654  0.00  0.00    +0.000 C 
ATOM     15  C12 UNK     0       2.076  -0.134  -0.779  0.00  0.00    +0.000 C 
ENDBRANCH   8   9
BRANCH   8  16
ATOM     16  O5  UNK     0      -0.468   0.746   1.858  0.00  0.00    +0.000 OA
ATOM     17  H33 UNK     0      -0.650  -0.179   2.168  0.00  0.00    +0.000 HD
ENDBRANCH   8  16
ENDBRANCH   3   8
BRANCH   4  18
ATOM     18  C14 UNK     0      -2.195   2.056  -1.641  0.00  0.00    +0.000 C 
BRANCH  18  19
ATOM     19  O6  UNK     0      -2.247   1.428  -2.896  0.00  0.00    +0.000 OA
ATOM     20  H40 UNK     0      -1.320   1.404  -3.251  0.00  0.00    +0.000 HD
ENDBRANCH  18  19
ENDBRANCH   4  18
TORSDOF 5
