REMARK  Name = C:\Users\Maximilian\Desktop\Conformers\converted_pdb\conformers_pdb\Xanthohumol_conf_45.pdb
REMARK  9 active torsions:
REMARK  status: ('A' for Active; 'I' for Inactive)
REMARK    1  A    between atoms: C7_3  and  C8_8
REMARK    2  A    between atoms: C9_4  and  C14_18
REMARK    3  A    between atoms: C11_5  and  C15_6
REMARK    4  A    between atoms: C11_5  and  C16_7
REMARK    5  A    between atoms: C8_8  and  O5_9
REMARK    6  A    between atoms: C8_8  and  C10_11
REMARK    7  A    between atoms: C13_13  and  C17_15
REMARK    8  A    between atoms: C13_13  and  C18_16
REMARK    9  A    between atoms: C14_18  and  O6_19
REMARK                            x       y       z     vdW  Elec       q    Type
REMARK                         _______ _______ _______ _____ _____    ______ ____
ROOT
ATOM      1  O1  UNK     0      -1.586   0.944   1.013  0.00  0.00    +0.000 OA
ATOM      2  O2  UNK     0      -2.197  -0.632  -0.601  0.00  0.00    +0.000 OA
ATOM      3  C7  UNK     0      -0.982  -0.263   1.364  0.00  0.00    +0.000 C 
ATOM      4  C9  UNK     0      -1.218  -1.216   0.201  0.00  0.00    +0.000 C 
ATOM      5  C11 UNK     0      -2.396   0.678  -0.112  0.00  0.00    +0.000 C 
ATOM      6  C15 UNK     0      -2.043   1.675  -1.219  0.00  0.00    +0.000 C 
ATOM      7  C16 UNK     0      -3.866   0.839   0.287  0.00  0.00    +0.000 C 
ENDROOT
BRANCH   3   8
ATOM      8  C8  UNK     0       0.510  -0.040   1.736  0.00  0.00    +0.000 C 
BRANCH   8   9
ATOM      9  C10 UNK     0       1.258   0.939   0.793  0.00  0.00    +0.000 C 
ATOM     10  O3  UNK     0       1.321   0.435  -0.506  0.00  0.00    +0.000 OA
ATOM     11  C13 UNK     0       2.687   0.259  -0.808  0.00  0.00    +0.000 C 
ATOM     12  O4  UNK     0       3.493   0.494   0.324  0.00  0.00    +0.000 OA
ATOM     13  C17 UNK     0       2.904  -1.182  -1.277  0.00  0.00    +0.000 C 
ATOM     14  C18 UNK     0       3.083   1.236  -1.923  0.00  0.00    +0.000 C 
ATOM     15  C12 UNK     0       2.686   1.180   1.226  0.00  0.00    +0.000 C 
ENDBRANCH   8   9
BRANCH   8  16
ATOM     16  O5  UNK     0       1.191  -1.268   1.796  0.00  0.00    +0.000 OA
ATOM     17  H33 UNK     0       0.886  -1.726   2.622  0.00  0.00    +0.000 HD
ENDBRANCH   8  16
ENDBRANCH   3   8
BRANCH   4  18
ATOM     18  C14 UNK     0      -1.674  -2.615   0.648  0.00  0.00    +0.000 C 
BRANCH  18  19
ATOM     19  O6  UNK     0      -2.903  -2.560   1.325  0.00  0.00    +0.000 OA
ATOM     20  H40 UNK     0      -3.610  -2.508   0.631  0.00  0.00    +0.000 HD
ENDBRANCH  18  19
ENDBRANCH   4  18
TORSDOF 5
