REMARK  Name = C:\Users\Maximilian\Desktop\Conformers\converted_pdb\conformers_pdb\Xanthohumol_conf_28.pdb
REMARK  9 active torsions:
REMARK  status: ('A' for Active; 'I' for Inactive)
REMARK    1  A    between atoms: C7_3  and  C8_8
REMARK    2  A    between atoms: C9_4  and  C14_18
REMARK    3  A    between atoms: C11_5  and  C15_6
REMARK    4  A    between atoms: C11_5  and  C16_7
REMARK    5  A    between atoms: C8_8  and  O5_9
REMARK    6  A    between atoms: C8_8  and  C10_11
REMARK    7  A    between atoms: C13_13  and  C17_15
REMARK    8  A    between atoms: C13_13  and  C18_16
REMARK    9  A    between atoms: C14_18  and  O6_19
REMARK                            x       y       z     vdW  Elec       q    Type
REMARK                         _______ _______ _______ _____ _____    ______ ____
ROOT
ATOM      1  O1  UNK     0      -1.858  -1.544  -0.370  0.00  0.00    +0.000 OA
ATOM      2  O2  UNK     0      -3.055   0.451  -0.255  0.00  0.00    +0.000 OA
ATOM      3  C7  UNK     0      -0.925  -0.508  -0.304  0.00  0.00    +0.000 C 
ATOM      4  C9  UNK     0      -1.716   0.767  -0.040  0.00  0.00    +0.000 C 
ATOM      5  C11 UNK     0      -3.135  -0.955  -0.265  0.00  0.00    +0.000 C 
ATOM      6  C15 UNK     0      -3.798  -1.430   1.033  0.00  0.00    +0.000 C 
ATOM      7  C16 UNK     0      -3.973  -1.388  -1.470  0.00  0.00    +0.000 C 
ENDROOT
BRANCH   3   8
ATOM      8  C8  UNK     0       0.116  -0.832   0.798  0.00  0.00    +0.000 C 
BRANCH   8   9
ATOM      9  C10 UNK     0       1.245   0.225   0.885  0.00  0.00    +0.000 C 
ATOM     10  O3  UNK     0       1.975   0.278  -0.301  0.00  0.00    +0.000 OA
ATOM     11  C13 UNK     0       3.323   0.453   0.081  0.00  0.00    +0.000 C 
ATOM     12  O4  UNK     0       3.475   0.365   1.483  0.00  0.00    +0.000 OA
ATOM     13  C17 UNK     0       4.169  -0.639  -0.581  0.00  0.00    +0.000 C 
ATOM     14  C18 UNK     0       3.793   1.835  -0.381  0.00  0.00    +0.000 C 
ATOM     15  C12 UNK     0       2.245  -0.064   1.974  0.00  0.00    +0.000 C 
ENDBRANCH   8   9
BRANCH   8  16
ATOM     16  O5  UNK     0       0.650  -2.119   0.593  0.00  0.00    +0.000 OA
ATOM     17  H33 UNK     0       1.086  -2.128  -0.299  0.00  0.00    +0.000 HD
ENDBRANCH   8  16
ENDBRANCH   3   8
BRANCH   4  18
ATOM     18  C14 UNK     0      -1.308   1.913  -0.978  0.00  0.00    +0.000 C 
BRANCH  18  19
ATOM     19  O6  UNK     0      -2.045   3.069  -0.685  0.00  0.00    +0.000 OA
ATOM     20  H40 UNK     0      -1.650   3.455   0.141  0.00  0.00    +0.000 HD
ENDBRANCH  18  19
ENDBRANCH   4  18
TORSDOF 5
