REMARK  Name = C:\Users\Maximilian\Desktop\Conformers\converted_pdb\conformers_pdb\Xanthohumol_conf_29.pdb
REMARK  9 active torsions:
REMARK  status: ('A' for Active; 'I' for Inactive)
REMARK    1  A    between atoms: C7_3  and  C8_8
REMARK    2  A    between atoms: C9_4  and  C14_18
REMARK    3  A    between atoms: C11_5  and  C15_6
REMARK    4  A    between atoms: C11_5  and  C16_7
REMARK    5  A    between atoms: C8_8  and  O5_9
REMARK    6  A    between atoms: C8_8  and  C10_11
REMARK    7  A    between atoms: C13_13  and  C17_15
REMARK    8  A    between atoms: C13_13  and  C18_16
REMARK    9  A    between atoms: C14_18  and  O6_19
REMARK                            x       y       z     vdW  Elec       q    Type
REMARK                         _______ _______ _______ _____ _____    ______ ____
ROOT
ATOM      1  O1  UNK     0       1.078  -0.610   0.264  0.00  0.00    +0.000 OA
ATOM      2  O2  UNK     0       3.136   0.421  -0.115  0.00  0.00    +0.000 OA
ATOM      3  C7  UNK     0       0.877   0.770   0.269  0.00  0.00    +0.000 C 
ATOM      4  C9  UNK     0       2.137   1.369  -0.323  0.00  0.00    +0.000 C 
ATOM      5  C11 UNK     0       2.468  -0.803   0.111  0.00  0.00    +0.000 C 
ATOM      6  C15 UNK     0       2.709  -1.730  -1.084  0.00  0.00    +0.000 C 
ATOM      7  C16 UNK     0       3.023  -1.438   1.389  0.00  0.00    +0.000 C 
ENDROOT
BRANCH   3   8
ATOM      8  C8  UNK     0      -0.395   1.137  -0.528  0.00  0.00    +0.000 C 
BRANCH   8   9
ATOM      9  C10 UNK     0      -1.668   0.683   0.218  0.00  0.00    +0.000 C 
ATOM     10  O3  UNK     0      -1.760  -0.708   0.242  0.00  0.00    +0.000 OA
ATOM     11  C13 UNK     0      -3.114  -1.015  -0.012  0.00  0.00    +0.000 C 
ATOM     12  O4  UNK     0      -3.864   0.150  -0.282  0.00  0.00    +0.000 OA
ATOM     13  C17 UNK     0      -3.190  -1.950  -1.224  0.00  0.00    +0.000 C 
ATOM     14  C18 UNK     0      -3.703  -1.707   1.221  0.00  0.00    +0.000 C 
ATOM     15  C12 UNK     0      -2.933   1.172  -0.437  0.00  0.00    +0.000 C 
ENDBRANCH   8   9
BRANCH   8  16
ATOM     16  O5  UNK     0      -0.355   0.534  -1.800  0.00  0.00    +0.000 OA
ATOM     17  H33 UNK     0      -0.155   1.246  -2.462  0.00  0.00    +0.000 HD
ENDBRANCH   8  16
ENDBRANCH   3   8
BRANCH   4  18
ATOM     18  C14 UNK     0       2.524   2.694   0.341  0.00  0.00    +0.000 C 
BRANCH  18  19
ATOM     19  O6  UNK     0       3.677   3.206  -0.268  0.00  0.00    +0.000 OA
ATOM     20  H40 UNK     0       3.879   4.058   0.198  0.00  0.00    +0.000 HD
ENDBRANCH  18  19
ENDBRANCH   4  18
TORSDOF 5
