REMARK  Name = C:\Users\Maximilian\Desktop\Conformers\converted_pdb\conformers_pdb\Xanthohumol_conf_26.pdb
REMARK  9 active torsions:
REMARK  status: ('A' for Active; 'I' for Inactive)
REMARK    1  A    between atoms: C7_3  and  C8_8
REMARK    2  A    between atoms: C9_4  and  C14_18
REMARK    3  A    between atoms: C11_5  and  C15_6
REMARK    4  A    between atoms: C11_5  and  C16_7
REMARK    5  A    between atoms: C8_8  and  O5_9
REMARK    6  A    between atoms: C8_8  and  C10_11
REMARK    7  A    between atoms: C13_13  and  C17_15
REMARK    8  A    between atoms: C13_13  and  C18_16
REMARK    9  A    between atoms: C14_18  and  O6_19
REMARK                            x       y       z     vdW  Elec       q    Type
REMARK                         _______ _______ _______ _____ _____    ______ ____
ROOT
ATOM      1  O1  UNK     0      -1.558   1.008  -0.325  0.00  0.00    +0.000 OA
ATOM      2  O2  UNK     0      -3.383  -0.302   0.306  0.00  0.00    +0.000 OA
ATOM      3  C7  UNK     0      -1.069  -0.092   0.377  0.00  0.00    +0.000 C 
ATOM      4  C9  UNK     0      -2.231  -1.062   0.498  0.00  0.00    +0.000 C 
ATOM      5  C11 UNK     0      -2.965   0.911  -0.284  0.00  0.00    +0.000 C 
ATOM      6  C15 UNK     0      -3.506   0.979  -1.715  0.00  0.00    +0.000 C 
ATOM      7  C16 UNK     0      -3.517   2.076   0.542  0.00  0.00    +0.000 C 
ENDROOT
BRANCH   3   8
ATOM      8  C8  UNK     0       0.156  -0.702  -0.353  0.00  0.00    +0.000 C 
BRANCH   8   9
ATOM      9  C10 UNK     0       1.361   0.268  -0.384  0.00  0.00    +0.000 C 
ATOM     10  O3  UNK     0       2.408  -0.295  -1.113  0.00  0.00    +0.000 OA
ATOM     11  C13 UNK     0       3.591   0.033  -0.416  0.00  0.00    +0.000 C 
ATOM     12  O4  UNK     0       3.304   0.679   0.805  0.00  0.00    +0.000 OA
ATOM     13  C17 UNK     0       4.368  -1.256  -0.127  0.00  0.00    +0.000 C 
ATOM     14  C18 UNK     0       4.435   0.970  -1.285  0.00  0.00    +0.000 C 
ATOM     15  C12 UNK     0       1.929   0.562   0.981  0.00  0.00    +0.000 C 
ENDBRANCH   8   9
BRANCH   8  16
ATOM     16  O5  UNK     0      -0.185  -1.098  -1.661  0.00  0.00    +0.000 OA
ATOM     17  H33 UNK     0      -0.391  -0.279  -2.183  0.00  0.00    +0.000 HD
ENDBRANCH   8  16
ENDBRANCH   3   8
BRANCH   4  18
ATOM     18  C14 UNK     0      -2.298  -1.750   1.867  0.00  0.00    +0.000 C 
BRANCH  18  19
ATOM     19  O6  UNK     0      -1.166  -2.554   2.058  0.00  0.00    +0.000 OA
ATOM     20  H40 UNK     0      -1.265  -2.957   2.960  0.00  0.00    +0.000 HD
ENDBRANCH  18  19
ENDBRANCH   4  18
TORSDOF 5
