REMARK  Name = C:\Users\Maximilian\Desktop\Conformers\converted_pdb\conformers_pdb\Xanthohumol_conf_27.pdb
REMARK  9 active torsions:
REMARK  status: ('A' for Active; 'I' for Inactive)
REMARK    1  A    between atoms: C7_3  and  C8_8
REMARK    2  A    between atoms: C9_4  and  C14_18
REMARK    3  A    between atoms: C11_5  and  C15_6
REMARK    4  A    between atoms: C11_5  and  C16_7
REMARK    5  A    between atoms: C8_8  and  O5_9
REMARK    6  A    between atoms: C8_8  and  C10_11
REMARK    7  A    between atoms: C13_13  and  C17_15
REMARK    8  A    between atoms: C13_13  and  C18_16
REMARK    9  A    between atoms: C14_18  and  O6_19
REMARK                            x       y       z     vdW  Elec       q    Type
REMARK                         _______ _______ _______ _____ _____    ______ ____
ROOT
ATOM      1  O1  UNK     0      -2.141   0.761   1.384  0.00  0.00    +0.000 OA
ATOM      2  O2  UNK     0      -2.266   0.257  -0.887  0.00  0.00    +0.000 OA
ATOM      3  C7  UNK     0      -0.948   0.118   1.040  0.00  0.00    +0.000 C 
ATOM      4  C9  UNK     0      -1.170  -0.430  -0.364  0.00  0.00    +0.000 C 
ATOM      5  C11 UNK     0      -2.885   0.915   0.196  0.00  0.00    +0.000 C 
ATOM      6  C15 UNK     0      -3.006   2.408  -0.134  0.00  0.00    +0.000 C 
ATOM      7  C16 UNK     0      -4.284   0.325   0.408  0.00  0.00    +0.000 C 
ENDROOT
BRANCH   3   8
ATOM      8  C8  UNK     0       0.216   1.142   1.172  0.00  0.00    +0.000 C 
BRANCH   8   9
ATOM      9  C10 UNK     0       1.663   0.634   0.906  0.00  0.00    +0.000 C 
ATOM     10  O3  UNK     0       1.905   0.398  -0.444  0.00  0.00    +0.000 OA
ATOM     11  C13 UNK     0       2.941  -0.561  -0.462  0.00  0.00    +0.000 C 
ATOM     12  O4  UNK     0       3.027  -1.233   0.780  0.00  0.00    +0.000 OA
ATOM     13  C17 UNK     0       2.651  -1.583  -1.565  0.00  0.00    +0.000 C 
ATOM     14  C18 UNK     0       4.277   0.138  -0.748  0.00  0.00    +0.000 C 
ATOM     15  C12 UNK     0       2.091  -0.623   1.617  0.00  0.00    +0.000 C 
ENDBRANCH   8   9
BRANCH   8  16
ATOM     16  O5  UNK     0       0.166   1.687   2.468  0.00  0.00    +0.000 OA
ATOM     17  H33 UNK     0       0.575   2.591   2.424  0.00  0.00    +0.000 HD
ENDBRANCH   8  16
ENDBRANCH   3   8
BRANCH   4  18
ATOM     18  C14 UNK     0      -1.478  -1.937  -0.372  0.00  0.00    +0.000 C 
BRANCH  18  19
ATOM     19  O6  UNK     0      -0.356  -2.675   0.032  0.00  0.00    +0.000 OA
ATOM     20  H40 UNK     0      -0.517  -2.970   0.966  0.00  0.00    +0.000 HD
ENDBRANCH  18  19
ENDBRANCH   4  18
TORSDOF 5
