REMARK  Name = C:\Users\Maximilian\Desktop\Conformers\converted_pdb\conformers_pdb\Xanthohumol_conf_40.pdb
REMARK  9 active torsions:
REMARK  status: ('A' for Active; 'I' for Inactive)
REMARK    1  A    between atoms: C7_3  and  C8_8
REMARK    2  A    between atoms: C9_4  and  C14_18
REMARK    3  A    between atoms: C11_5  and  C15_6
REMARK    4  A    between atoms: C11_5  and  C16_7
REMARK    5  A    between atoms: C8_8  and  O5_9
REMARK    6  A    between atoms: C8_8  and  C10_11
REMARK    7  A    between atoms: C13_13  and  C17_15
REMARK    8  A    between atoms: C13_13  and  C18_16
REMARK    9  A    between atoms: C14_18  and  O6_19
REMARK                            x       y       z     vdW  Elec       q    Type
REMARK                         _______ _______ _______ _____ _____    ______ ____
ROOT
ATOM      1  O1  UNK     0       1.637   0.913  -0.178  0.00  0.00    +0.000 OA
ATOM      2  O2  UNK     0       3.322  -0.649   0.231  0.00  0.00    +0.000 OA
ATOM      3  C7  UNK     0       1.041  -0.343  -0.075  0.00  0.00    +0.000 C 
ATOM      4  C9  UNK     0       2.099  -1.249   0.524  0.00  0.00    +0.000 C 
ATOM      5  C11 UNK     0       3.030   0.692  -0.100  0.00  0.00    +0.000 C 
ATOM      6  C15 UNK     0       3.614   1.609   0.979  0.00  0.00    +0.000 C 
ATOM      7  C16 UNK     0       3.659   1.013  -1.459  0.00  0.00    +0.000 C 
ENDROOT
BRANCH   3   8
ATOM      8  C8  UNK     0      -0.239  -0.265   0.788  0.00  0.00    +0.000 C 
BRANCH   8   9
ATOM      9  C10 UNK     0      -1.348   0.556   0.091  0.00  0.00    +0.000 C 
ATOM     10  O3  UNK     0      -2.457   0.672   0.928  0.00  0.00    +0.000 OA
ATOM     11  C13 UNK     0      -3.591   0.530   0.099  0.00  0.00    +0.000 C 
ATOM     12  O4  UNK     0      -3.222   0.202  -1.223  0.00  0.00    +0.000 OA
ATOM     13  C17 UNK     0      -4.478  -0.586   0.661  0.00  0.00    +0.000 C 
ATOM     14  C18 UNK     0      -4.361   1.854   0.082  0.00  0.00    +0.000 C 
ATOM     15  C12 UNK     0      -1.861  -0.082  -1.175  0.00  0.00    +0.000 C 
ENDBRANCH   8   9
BRANCH   8  16
ATOM     16  O5  UNK     0       0.072   0.330   2.024  0.00  0.00    +0.000 OA
ATOM     17  H33 UNK     0      -0.594   0.000   2.683  0.00  0.00    +0.000 HD
ENDBRANCH   8  16
ENDBRANCH   3   8
BRANCH   4  18
ATOM     18  C14 UNK     0       2.059  -2.675  -0.038  0.00  0.00    +0.000 C 
BRANCH  18  19
ATOM     19  O6  UNK     0       2.369  -2.675  -1.405  0.00  0.00    +0.000 OA
ATOM     20  H40 UNK     0       2.313  -3.621  -1.700  0.00  0.00    +0.000 HD
ENDBRANCH  18  19
ENDBRANCH   4  18
TORSDOF 5
