REMARK  Name = C:\Users\Maximilian\Desktop\Conformers\converted_pdb\conformers_pdb\Xanthohumol_conf_21.pdb
REMARK  9 active torsions:
REMARK  status: ('A' for Active; 'I' for Inactive)
REMARK    1  A    between atoms: C7_3  and  C8_8
REMARK    2  A    between atoms: C9_4  and  C14_18
REMARK    3  A    between atoms: C11_5  and  C15_6
REMARK    4  A    between atoms: C11_5  and  C16_7
REMARK    5  A    between atoms: C8_8  and  O5_9
REMARK    6  A    between atoms: C8_8  and  C10_11
REMARK    7  A    between atoms: C13_13  and  C17_15
REMARK    8  A    between atoms: C13_13  and  C18_16
REMARK    9  A    between atoms: C14_18  and  O6_19
REMARK                            x       y       z     vdW  Elec       q    Type
REMARK                         _______ _______ _______ _____ _____    ______ ____
ROOT
ATOM      1  O1  UNK     0      -0.789  -0.964  -0.286  0.00  0.00    +0.000 OA
ATOM      2  O2  UNK     0      -3.082  -0.552  -0.174  0.00  0.00    +0.000 OA
ATOM      3  C7  UNK     0      -1.007   0.360  -0.666  0.00  0.00    +0.000 C 
ATOM      4  C9  UNK     0      -2.430   0.677  -0.250  0.00  0.00    +0.000 C 
ATOM      5  C11 UNK     0      -2.065  -1.524  -0.060  0.00  0.00    +0.000 C 
ATOM      6  C15 UNK     0      -2.100  -2.119   1.351  0.00  0.00    +0.000 C 
ATOM      7  C16 UNK     0      -2.314  -2.622  -1.099  0.00  0.00    +0.000 C 
ENDROOT
BRANCH   3   8
ATOM      8  C8  UNK     0       0.030   1.293  -0.003  0.00  0.00    +0.000 C 
BRANCH   8   9
ATOM      9  C10 UNK     0       1.442   1.067  -0.594  0.00  0.00    +0.000 C 
ATOM     10  O3  UNK     0       1.910  -0.207  -0.264  0.00  0.00    +0.000 OA
ATOM     11  C13 UNK     0       3.072  -0.020   0.515  0.00  0.00    +0.000 C 
ATOM     12  O4  UNK     0       3.257   1.341   0.832  0.00  0.00    +0.000 OA
ATOM     13  C17 UNK     0       2.925  -0.814   1.816  0.00  0.00    +0.000 C 
ATOM     14  C18 UNK     0       4.289  -0.527  -0.270  0.00  0.00    +0.000 C 
ATOM     15  C12 UNK     0       2.464   2.048  -0.067  0.00  0.00    +0.000 C 
ENDBRANCH   8   9
BRANCH   8  16
ATOM     16  O5  UNK     0       0.040   1.072   1.387  0.00  0.00    +0.000 OA
ATOM     17  H33 UNK     0       0.269   1.934   1.821  0.00  0.00    +0.000 HD
ENDBRANCH   8  16
ENDBRANCH   3   8
BRANCH   4  18
ATOM     18  C14 UNK     0      -3.144   1.591  -1.255  0.00  0.00    +0.000 C 
BRANCH  18  19
ATOM     19  O6  UNK     0      -4.454   1.854  -0.830  0.00  0.00    +0.000 OA
ATOM     20  H40 UNK     0      -4.386   2.522  -0.098  0.00  0.00    +0.000 HD
ENDBRANCH  18  19
ENDBRANCH   4  18
TORSDOF 5
