REMARK  Name = C:\Users\Maximilian\Desktop\Conformers\converted_pdb\conformers_pdb\Xanthohumol_conf_43.pdb
REMARK  9 active torsions:
REMARK  status: ('A' for Active; 'I' for Inactive)
REMARK    1  A    between atoms: C7_3  and  C8_8
REMARK    2  A    between atoms: C9_4  and  C14_18
REMARK    3  A    between atoms: C11_5  and  C15_6
REMARK    4  A    between atoms: C11_5  and  C16_7
REMARK    5  A    between atoms: C8_8  and  O5_9
REMARK    6  A    between atoms: C8_8  and  C10_11
REMARK    7  A    between atoms: C13_13  and  C17_15
REMARK    8  A    between atoms: C13_13  and  C18_16
REMARK    9  A    between atoms: C14_18  and  O6_19
REMARK                            x       y       z     vdW  Elec       q    Type
REMARK                         _______ _______ _______ _____ _____    ______ ____
ROOT
ATOM      1  O1  UNK     0      -1.513   0.601  -0.970  0.00  0.00    +0.000 OA
ATOM      2  O2  UNK     0      -3.349  -0.619  -0.203  0.00  0.00    +0.000 OA
ATOM      3  C7  UNK     0      -1.105  -0.135   0.142  0.00  0.00    +0.000 C 
ATOM      4  C9  UNK     0      -2.202  -1.155   0.377  0.00  0.00    +0.000 C 
ATOM      5  C11 UNK     0      -2.903   0.385  -1.091  0.00  0.00    +0.000 C 
ATOM      6  C15 UNK     0      -3.211  -0.049  -2.527  0.00  0.00    +0.000 C 
ATOM      7  C16 UNK     0      -3.637   1.690  -0.768  0.00  0.00    +0.000 C 
ENDROOT
BRANCH   3   8
ATOM      8  C8  UNK     0       0.273  -0.786  -0.114  0.00  0.00    +0.000 C 
BRANCH   8   9
ATOM      9  C10 UNK     0       1.394   0.274  -0.216  0.00  0.00    +0.000 C 
ATOM     10  O3  UNK     0       2.608  -0.339  -0.524  0.00  0.00    +0.000 OA
ATOM     11  C13 UNK     0       3.588   0.320   0.249  0.00  0.00    +0.000 C 
ATOM     12  O4  UNK     0       3.003   1.251   1.133  0.00  0.00    +0.000 OA
ATOM     13  C17 UNK     0       4.359  -0.724   1.063  0.00  0.00    +0.000 C 
ATOM     14  C18 UNK     0       4.543   1.063  -0.690  0.00  0.00    +0.000 C 
ATOM     15  C12 UNK     0       1.633   1.019   1.073  0.00  0.00    +0.000 C 
ENDBRANCH   8   9
BRANCH   8  16
ATOM     16  O5  UNK     0       0.221  -1.523  -1.312  0.00  0.00    +0.000 OA
ATOM     17  H33 UNK     0       0.909  -2.236  -1.245  0.00  0.00    +0.000 HD
ENDBRANCH   8  16
ENDBRANCH   3   8
BRANCH   4  18
ATOM     18  C14 UNK     0      -2.446  -1.455   1.863  0.00  0.00    +0.000 C 
BRANCH  18  19
ATOM     19  O6  UNK     0      -2.980  -0.334   2.520  0.00  0.00    +0.000 OA
ATOM     20  H40 UNK     0      -2.236   0.097   3.016  0.00  0.00    +0.000 HD
ENDBRANCH  18  19
ENDBRANCH   4  18
TORSDOF 5
