REMARK  Name = C:\Users\Maximilian\Desktop\Conformers\converted_pdb\conformers_pdb\Xanthohumol_conf_33.pdb
REMARK  9 active torsions:
REMARK  status: ('A' for Active; 'I' for Inactive)
REMARK    1  A    between atoms: C7_3  and  C8_8
REMARK    2  A    between atoms: C9_4  and  C14_18
REMARK    3  A    between atoms: C11_5  and  C15_6
REMARK    4  A    between atoms: C11_5  and  C16_7
REMARK    5  A    between atoms: C8_8  and  O5_9
REMARK    6  A    between atoms: C8_8  and  C10_11
REMARK    7  A    between atoms: C13_13  and  C17_15
REMARK    8  A    between atoms: C13_13  and  C18_16
REMARK    9  A    between atoms: C14_18  and  O6_19
REMARK                            x       y       z     vdW  Elec       q    Type
REMARK                         _______ _______ _______ _____ _____    ______ ____
ROOT
ATOM      1  O1  UNK     0      -2.187  -0.709   1.076  0.00  0.00    +0.000 OA
ATOM      2  O2  UNK     0      -2.899   0.887  -0.463  0.00  0.00    +0.000 OA
ATOM      3  C7  UNK     0      -1.186  -0.614   0.107  0.00  0.00    +0.000 C 
ATOM      4  C9  UNK     0      -1.626   0.480  -0.860  0.00  0.00    +0.000 C 
ATOM      5  C11 UNK     0      -3.141   0.288   0.788  0.00  0.00    +0.000 C 
ATOM      6  C15 UNK     0      -3.088   1.364   1.879  0.00  0.00    +0.000 C 
ATOM      7  C16 UNK     0      -4.528  -0.359   0.758  0.00  0.00    +0.000 C 
ENDROOT
BRANCH   3   8
ATOM      8  C8  UNK     0       0.174  -0.338   0.807  0.00  0.00    +0.000 C 
BRANCH   8   9
ATOM      9  C10 UNK     0       1.394  -0.467  -0.150  0.00  0.00    +0.000 C 
ATOM     10  O3  UNK     0       2.555  -0.721   0.582  0.00  0.00    +0.000 OA
ATOM     11  C13 UNK     0       3.590  -0.009  -0.064  0.00  0.00    +0.000 C 
ATOM     12  O4  UNK     0       3.078   0.820  -1.084  0.00  0.00    +0.000 OA
ATOM     13  C17 UNK     0       4.312   0.860   0.970  0.00  0.00    +0.000 C 
ATOM     14  C18 UNK     0       4.569  -1.010  -0.685  0.00  0.00    +0.000 C 
ATOM     15  C12 UNK     0       1.694   0.781  -0.942  0.00  0.00    +0.000 C 
ENDBRANCH   8   9
BRANCH   8  16
ATOM     16  O5  UNK     0       0.325  -1.226   1.889  0.00  0.00    +0.000 OA
ATOM     17  H33 UNK     0       0.349  -2.148   1.520  0.00  0.00    +0.000 HD
ENDBRANCH   8  16
ENDBRANCH   3   8
BRANCH   4  18
ATOM     18  C14 UNK     0      -1.674   0.006  -2.322  0.00  0.00    +0.000 C 
BRANCH  18  19
ATOM     19  O6  UNK     0      -2.742  -0.882  -2.528  0.00  0.00    +0.000 OA
ATOM     20  H40 UNK     0      -2.392  -1.799  -2.380  0.00  0.00    +0.000 HD
ENDBRANCH  18  19
ENDBRANCH   4  18
TORSDOF 5
