REMARK  Name = C:\Users\Maximilian\Desktop\Conformers\converted_pdb\conformers_pdb\Xanthohumol_conf_34.pdb
REMARK  9 active torsions:
REMARK  status: ('A' for Active; 'I' for Inactive)
REMARK    1  A    between atoms: C7_3  and  C8_8
REMARK    2  A    between atoms: C9_4  and  C14_18
REMARK    3  A    between atoms: C11_5  and  C15_6
REMARK    4  A    between atoms: C11_5  and  C16_7
REMARK    5  A    between atoms: C8_8  and  O5_9
REMARK    6  A    between atoms: C8_8  and  C10_11
REMARK    7  A    between atoms: C13_13  and  C17_15
REMARK    8  A    between atoms: C13_13  and  C18_16
REMARK    9  A    between atoms: C14_18  and  O6_19
REMARK                            x       y       z     vdW  Elec       q    Type
REMARK                         _______ _______ _______ _____ _____    ______ ____
ROOT
ATOM      1  O1  UNK     0      -1.667   0.939   0.123  0.00  0.00    +0.000 OA
ATOM      2  O2  UNK     0      -3.333  -0.502  -0.645  0.00  0.00    +0.000 OA
ATOM      3  C7  UNK     0      -1.096  -0.323  -0.038  0.00  0.00    +0.000 C 
ATOM      4  C9  UNK     0      -2.108  -1.143  -0.818  0.00  0.00    +0.000 C 
ATOM      5  C11 UNK     0      -3.040   0.792  -0.165  0.00  0.00    +0.000 C 
ATOM      6  C15 UNK     0      -3.431   1.818  -1.234  0.00  0.00    +0.000 C 
ATOM      7  C16 UNK     0      -3.843   1.037   1.115  0.00  0.00    +0.000 C 
ENDROOT
BRANCH   3   8
ATOM      8  C8  UNK     0       0.266  -0.203  -0.762  0.00  0.00    +0.000 C 
BRANCH   8   9
ATOM      9  C10 UNK     0       1.313   0.525   0.111  0.00  0.00    +0.000 C 
ATOM     10  O3  UNK     0       2.503   0.683  -0.599  0.00  0.00    +0.000 OA
ATOM     11  C13 UNK     0       3.545   0.439   0.322  0.00  0.00    +0.000 C 
ATOM     12  O4  UNK     0       3.039   0.009   1.567  0.00  0.00    +0.000 OA
ATOM     13  C17 UNK     0       4.462  -0.650  -0.246  0.00  0.00    +0.000 C 
ATOM     14  C18 UNK     0       4.336   1.734   0.531  0.00  0.00    +0.000 C 
ATOM     15  C12 UNK     0       1.685  -0.233   1.360  0.00  0.00    +0.000 C 
ENDBRANCH   8   9
BRANCH   8  16
ATOM     16  O5  UNK     0       0.089   0.506  -1.963  0.00  0.00    +0.000 OA
ATOM     17  H33 UNK     0       0.812   0.220  -2.581  0.00  0.00    +0.000 HD
ENDBRANCH   8  16
ENDBRANCH   3   8
BRANCH   4  18
ATOM     18  C14 UNK     0      -2.216  -2.590  -0.324  0.00  0.00    +0.000 C 
BRANCH  18  19
ATOM     19  O6  UNK     0      -1.004  -3.262  -0.528  0.00  0.00    +0.000 OA
ATOM     20  H40 UNK     0      -1.136  -4.181  -0.178  0.00  0.00    +0.000 HD
ENDBRANCH  18  19
ENDBRANCH   4  18
TORSDOF 5
