REMARK  Name = C:\Users\Maximilian\Desktop\Conformers\converted_pdb\conformers_pdb\Xanthohumol_conf_15.pdb
REMARK  9 active torsions:
REMARK  status: ('A' for Active; 'I' for Inactive)
REMARK    1  A    between atoms: C7_3  and  C8_8
REMARK    2  A    between atoms: C9_4  and  C14_18
REMARK    3  A    between atoms: C11_5  and  C15_6
REMARK    4  A    between atoms: C11_5  and  C16_7
REMARK    5  A    between atoms: C8_8  and  O5_9
REMARK    6  A    between atoms: C8_8  and  C10_11
REMARK    7  A    between atoms: C13_13  and  C17_15
REMARK    8  A    between atoms: C13_13  and  C18_16
REMARK    9  A    between atoms: C14_18  and  O6_19
REMARK                            x       y       z     vdW  Elec       q    Type
REMARK                         _______ _______ _______ _____ _____    ______ ____
ROOT
ATOM      1  O1  UNK     0      -0.815   0.044  -0.948  0.00  0.00    +0.000 OA
ATOM      2  O2  UNK     0      -2.909   0.667  -0.133  0.00  0.00    +0.000 OA
ATOM      3  C7  UNK     0      -0.794  -0.124   0.434  0.00  0.00    +0.000 C 
ATOM      4  C9  UNK     0      -2.241  -0.011   0.885  0.00  0.00    +0.000 C 
ATOM      5  C11 UNK     0      -2.045   0.664  -1.250  0.00  0.00    +0.000 C 
ATOM      6  C15 UNK     0      -2.714  -0.107  -2.390  0.00  0.00    +0.000 C 
ATOM      7  C16 UNK     0      -1.780   2.111  -1.677  0.00  0.00    +0.000 C 
ENDROOT
BRANCH   3   8
ATOM      8  C8  UNK     0      -0.145  -1.480   0.811  0.00  0.00    +0.000 C 
BRANCH   8   9
ATOM      9  C10 UNK     0       1.366  -1.562   0.461  0.00  0.00    +0.000 C 
ATOM     10  O3  UNK     0       2.041  -0.431   0.926  0.00  0.00    +0.000 OA
ATOM     11  C13 UNK     0       2.777   0.070  -0.169  0.00  0.00    +0.000 C 
ATOM     12  O4  UNK     0       2.349  -0.515  -1.377  0.00  0.00    +0.000 OA
ATOM     13  C17 UNK     0       2.563   1.584  -0.258  0.00  0.00    +0.000 C 
ATOM     14  C18 UNK     0       4.267  -0.231   0.045  0.00  0.00    +0.000 C 
ATOM     15  C12 UNK     0       1.669  -1.676  -1.018  0.00  0.00    +0.000 C 
ENDBRANCH   8   9
BRANCH   8  16
ATOM     16  O5  UNK     0      -0.843  -2.535   0.198  0.00  0.00    +0.000 OA
ATOM     17  H33 UNK     0      -0.590  -3.366   0.679  0.00  0.00    +0.000 HD
ENDBRANCH   8  16
ENDBRANCH   3   8
BRANCH   4  18
ATOM     18  C14 UNK     0      -2.403   0.762   2.200  0.00  0.00    +0.000 C 
BRANCH  18  19
ATOM     19  O6  UNK     0      -1.782   0.069   3.247  0.00  0.00    +0.000 OA
ATOM     20  H40 UNK     0      -1.913   0.625   4.059  0.00  0.00    +0.000 HD
ENDBRANCH  18  19
ENDBRANCH   4  18
TORSDOF 5
