REMARK  Name = C:\Users\Maximilian\Desktop\Conformers\converted_pdb\conformers_pdb\Xanthohumol_conf_32.pdb
REMARK  9 active torsions:
REMARK  status: ('A' for Active; 'I' for Inactive)
REMARK    1  A    between atoms: C7_3  and  C8_8
REMARK    2  A    between atoms: C9_4  and  C14_18
REMARK    3  A    between atoms: C11_5  and  C15_6
REMARK    4  A    between atoms: C11_5  and  C16_7
REMARK    5  A    between atoms: C8_8  and  O5_9
REMARK    6  A    between atoms: C8_8  and  C10_11
REMARK    7  A    between atoms: C13_13  and  C17_15
REMARK    8  A    between atoms: C13_13  and  C18_16
REMARK    9  A    between atoms: C14_18  and  O6_19
REMARK                            x       y       z     vdW  Elec       q    Type
REMARK                         _______ _______ _______ _____ _____    ______ ____
ROOT
ATOM      1  O1  UNK     0      -1.902  -1.245  -0.834  0.00  0.00    +0.000 OA
ATOM      2  O2  UNK     0      -3.076   0.630  -0.092  0.00  0.00    +0.000 OA
ATOM      3  C7  UNK     0      -0.952  -0.272  -0.523  0.00  0.00    +0.000 C 
ATOM      4  C9  UNK     0      -1.727   0.977  -0.116  0.00  0.00    +0.000 C 
ATOM      5  C11 UNK     0      -3.166  -0.713  -0.508  0.00  0.00    +0.000 C 
ATOM      6  C15 UNK     0      -3.776  -1.543   0.626  0.00  0.00    +0.000 C 
ATOM      7  C16 UNK     0      -4.062  -0.784  -1.748  0.00  0.00    +0.000 C 
ENDROOT
BRANCH   3   8
ATOM      8  C8  UNK     0      -0.017  -0.808   0.593  0.00  0.00    +0.000 C 
BRANCH   8   9
ATOM      9  C10 UNK     0       1.199   0.120   0.840  0.00  0.00    +0.000 C 
ATOM     10  O3  UNK     0       2.021   0.180  -0.284  0.00  0.00    +0.000 OA
ATOM     11  C13 UNK     0       3.345   0.188   0.205  0.00  0.00    +0.000 C 
ATOM     12  O4  UNK     0       3.378  -0.015   1.603  0.00  0.00    +0.000 OA
ATOM     13  C17 UNK     0       4.132  -0.934  -0.479  0.00  0.00    +0.000 C 
ATOM     14  C18 UNK     0       3.981   1.545  -0.112  0.00  0.00    +0.000 C 
ATOM     15  C12 UNK     0       2.077  -0.347   1.970  0.00  0.00    +0.000 C 
ENDBRANCH   8   9
BRANCH   8  16
ATOM     16  O5  UNK     0       0.409  -2.115   0.286  0.00  0.00    +0.000 OA
ATOM     17  H33 UNK     0       0.877  -2.084  -0.589  0.00  0.00    +0.000 HD
ENDBRANCH   8  16
ENDBRANCH   3   8
BRANCH   4  18
ATOM     18  C14 UNK     0      -1.528   2.142  -1.098  0.00  0.00    +0.000 C 
BRANCH  18  19
ATOM     19  O6  UNK     0      -0.191   2.566  -1.107  0.00  0.00    +0.000 OA
ATOM     20  H40 UNK     0      -0.059   3.105  -0.283  0.00  0.00    +0.000 HD
ENDBRANCH  18  19
ENDBRANCH   4  18
TORSDOF 5
