REMARK  Name = C:\Users\Maximilian\Desktop\Conformers\converted_pdb\conformers_pdb\Xanthohumol_conf_24.pdb
REMARK  9 active torsions:
REMARK  status: ('A' for Active; 'I' for Inactive)
REMARK    1  A    between atoms: C7_3  and  C8_8
REMARK    2  A    between atoms: C9_4  and  C14_18
REMARK    3  A    between atoms: C11_5  and  C15_6
REMARK    4  A    between atoms: C11_5  and  C16_7
REMARK    5  A    between atoms: C8_8  and  O5_9
REMARK    6  A    between atoms: C8_8  and  C10_11
REMARK    7  A    between atoms: C13_13  and  C17_15
REMARK    8  A    between atoms: C13_13  and  C18_16
REMARK    9  A    between atoms: C14_18  and  O6_19
REMARK                            x       y       z     vdW  Elec       q    Type
REMARK                         _______ _______ _______ _____ _____    ______ ____
ROOT
ATOM      1  O1  UNK     0      -1.496  -1.141   0.175  0.00  0.00    +0.000 OA
ATOM      2  O2  UNK     0      -3.355   0.259   0.007  0.00  0.00    +0.000 OA
ATOM      3  C7  UNK     0      -1.052   0.120  -0.220  0.00  0.00    +0.000 C 
ATOM      4  C9  UNK     0      -2.215   1.059   0.031  0.00  0.00    +0.000 C 
ATOM      5  C11 UNK     0      -2.906  -1.065   0.210  0.00  0.00    +0.000 C 
ATOM      6  C15 UNK     0      -3.393  -1.551   1.578  0.00  0.00    +0.000 C 
ATOM      7  C16 UNK     0      -3.477  -1.955  -0.898  0.00  0.00    +0.000 C 
ENDROOT
BRANCH   3   8
ATOM      8  C8  UNK     0       0.219   0.517   0.566  0.00  0.00    +0.000 C 
BRANCH   8   9
ATOM      9  C10 UNK     0       1.422  -0.378   0.192  0.00  0.00    +0.000 C 
ATOM     10  O3  UNK     0       2.529  -0.044   0.972  0.00  0.00    +0.000 OA
ATOM     11  C13 UNK     0       3.648  -0.103   0.112  0.00  0.00    +0.000 C 
ATOM     12  O4  UNK     0       3.256  -0.341  -1.223  0.00  0.00    +0.000 OA
ATOM     13  C17 UNK     0       4.395   1.233   0.182  0.00  0.00    +0.000 C 
ATOM     14  C18 UNK     0       4.565  -1.241   0.569  0.00  0.00    +0.000 C 
ATOM     15  C12 UNK     0       1.871  -0.213  -1.238  0.00  0.00    +0.000 C 
ENDBRANCH   8   9
BRANCH   8  16
ATOM     16  O5  UNK     0      -0.035   0.401   1.945  0.00  0.00    +0.000 OA
ATOM     17  H33 UNK     0       0.581   1.027   2.408  0.00  0.00    +0.000 HD
ENDBRANCH   8  16
ENDBRANCH   3   8
BRANCH   4  18
ATOM     18  C14 UNK     0      -2.320   2.157  -1.031  0.00  0.00    +0.000 C 
BRANCH  18  19
ATOM     19  O6  UNK     0      -3.392   3.005  -0.725  0.00  0.00    +0.000 OA
ATOM     20  H40 UNK     0      -3.412   3.693  -1.441  0.00  0.00    +0.000 HD
ENDBRANCH  18  19
ENDBRANCH   4  18
TORSDOF 5
