REMARK  Name = C:\Users\Maximilian\Desktop\Conformers\converted_pdb\conformers_pdb\Xanthohumol_conf_6.pdb
REMARK  9 active torsions:
REMARK  status: ('A' for Active; 'I' for Inactive)
REMARK    1  A    between atoms: C7_3  and  C8_8
REMARK    2  A    between atoms: C9_4  and  C14_18
REMARK    3  A    between atoms: C11_5  and  C15_6
REMARK    4  A    between atoms: C11_5  and  C16_7
REMARK    5  A    between atoms: C8_8  and  O5_9
REMARK    6  A    between atoms: C8_8  and  C10_11
REMARK    7  A    between atoms: C13_13  and  C17_15
REMARK    8  A    between atoms: C13_13  and  C18_16
REMARK    9  A    between atoms: C14_18  and  O6_19
REMARK                            x       y       z     vdW  Elec       q    Type
REMARK                         _______ _______ _______ _____ _____    ______ ____
ROOT
ATOM      1  O1  UNK     0      -2.065  -0.355  -1.186  0.00  0.00    +0.000 OA
ATOM      2  O2  UNK     0      -2.960  -0.183   0.958  0.00  0.00    +0.000 OA
ATOM      3  C7  UNK     0      -1.018  -0.003  -0.331  0.00  0.00    +0.000 C 
ATOM      4  C9  UNK     0      -1.578  -0.070   1.084  0.00  0.00    +0.000 C 
ATOM      5  C11 UNK     0      -3.209  -0.537  -0.383  0.00  0.00    +0.000 C 
ATOM      6  C15 UNK     0      -3.632  -2.009  -0.443  0.00  0.00    +0.000 C 
ATOM      7  C16 UNK     0      -4.331   0.353  -0.923  0.00  0.00    +0.000 C 
ENDROOT
BRANCH   3   8
ATOM      8  C8  UNK     0       0.178  -0.960  -0.573  0.00  0.00    +0.000 C 
BRANCH   8   9
ATOM      9  C10 UNK     0       1.422  -0.586   0.269  0.00  0.00    +0.000 C 
ATOM     10  O3  UNK     0       1.895   0.680  -0.069  0.00  0.00    +0.000 OA
ATOM     11  C13 UNK     0       3.304   0.587  -0.046  0.00  0.00    +0.000 C 
ATOM     12  O4  UNK     0       3.727  -0.745   0.158  0.00  0.00    +0.000 OA
ATOM     13  C17 UNK     0       3.854   1.085  -1.386  0.00  0.00    +0.000 C 
ATOM     14  C18 UNK     0       3.839   1.456   1.096  0.00  0.00    +0.000 C 
ATOM     15  C12 UNK     0       2.580  -1.528   0.066  0.00  0.00    +0.000 C 
ENDBRANCH   8   9
BRANCH   8  16
ATOM     16  O5  UNK     0       0.494  -0.998  -1.945  0.00  0.00    +0.000 OA
ATOM     17  H33 UNK     0       0.734  -0.077  -2.227  0.00  0.00    +0.000 HD
ENDBRANCH   8  16
ENDBRANCH   3   8
BRANCH   4  18
ATOM     18  C14 UNK     0      -1.244   1.181   1.905  0.00  0.00    +0.000 C 
BRANCH  18  19
ATOM     19  O6  UNK     0      -1.746   1.038   3.205  0.00  0.00    +0.000 OA
ATOM     20  H40 UNK     0      -1.507   1.873   3.686  0.00  0.00    +0.000 HD
ENDBRANCH  18  19
ENDBRANCH   4  18
TORSDOF 5
