REMARK  Name = C:\Users\Maximilian\Desktop\Conformers\converted_pdb\conformers_pdb\Xanthohumol_conf_44.pdb
REMARK  9 active torsions:
REMARK  status: ('A' for Active; 'I' for Inactive)
REMARK    1  A    between atoms: C7_3  and  C8_8
REMARK    2  A    between atoms: C9_4  and  C14_18
REMARK    3  A    between atoms: C11_5  and  C15_6
REMARK    4  A    between atoms: C11_5  and  C16_7
REMARK    5  A    between atoms: C8_8  and  O5_9
REMARK    6  A    between atoms: C8_8  and  C10_11
REMARK    7  A    between atoms: C13_13  and  C17_15
REMARK    8  A    between atoms: C13_13  and  C18_16
REMARK    9  A    between atoms: C14_18  and  O6_19
REMARK                            x       y       z     vdW  Elec       q    Type
REMARK                         _______ _______ _______ _____ _____    ______ ____
ROOT
ATOM      1  O1  UNK     0      -1.939  -1.154  -0.635  0.00  0.00    +0.000 OA
ATOM      2  O2  UNK     0      -2.532   0.844   0.411  0.00  0.00    +0.000 OA
ATOM      3  C7  UNK     0      -0.753  -0.502  -0.289  0.00  0.00    +0.000 C 
ATOM      4  C9  UNK     0      -1.168   0.905   0.122  0.00  0.00    +0.000 C 
ATOM      5  C11 UNK     0      -2.995  -0.391  -0.092  0.00  0.00    +0.000 C 
ATOM      6  C15 UNK     0      -3.648  -1.179   1.049  0.00  0.00    +0.000 C 
ATOM      7  C16 UNK     0      -4.028  -0.125  -1.192  0.00  0.00    +0.000 C 
ENDROOT
BRANCH   3   8
ATOM      8  C8  UNK     0      -0.041  -1.282   0.855  0.00  0.00    +0.000 C 
BRANCH   8   9
ATOM      9  C10 UNK     0       1.485  -1.010   0.940  0.00  0.00    +0.000 C 
ATOM     10  O3  UNK     0       1.788   0.339   0.774  0.00  0.00    +0.000 OA
ATOM     11  C13 UNK     0       3.046   0.364   0.128  0.00  0.00    +0.000 C 
ATOM     12  O4  UNK     0       3.402  -0.918  -0.347  0.00  0.00    +0.000 OA
ATOM     13  C17 UNK     0       2.979   1.327  -1.060  0.00  0.00    +0.000 C 
ATOM     14  C18 UNK     0       4.108   0.838   1.125  0.00  0.00    +0.000 C 
ATOM     15  C12 UNK     0       2.303  -1.735  -0.096  0.00  0.00    +0.000 C 
ENDBRANCH   8   9
BRANCH   8  16
ATOM     16  O5  UNK     0      -0.265  -2.661   0.694  0.00  0.00    +0.000 OA
ATOM     17  H33 UNK     0      -0.050  -3.092   1.563  0.00  0.00    +0.000 HD
ENDBRANCH   8  16
ENDBRANCH   3   8
BRANCH   4  18
ATOM     18  C14 UNK     0      -0.926   1.935  -0.993  0.00  0.00    +0.000 C 
BRANCH  18  19
ATOM     19  O6  UNK     0      -1.426   3.190  -0.617  0.00  0.00    +0.000 OA
ATOM     20  H40 UNK     0      -0.785   3.565   0.042  0.00  0.00    +0.000 HD
ENDBRANCH  18  19
ENDBRANCH   4  18
TORSDOF 5
