REMARK  Name = C:\Users\Maximilian\Desktop\Conformers\converted_pdb\conformers_pdb\Xanthohumol_conf_46.pdb
REMARK  9 active torsions:
REMARK  status: ('A' for Active; 'I' for Inactive)
REMARK    1  A    between atoms: C7_3  and  C8_8
REMARK    2  A    between atoms: C9_4  and  C14_18
REMARK    3  A    between atoms: C11_5  and  C15_6
REMARK    4  A    between atoms: C11_5  and  C16_7
REMARK    5  A    between atoms: C8_8  and  O5_9
REMARK    6  A    between atoms: C8_8  and  C10_11
REMARK    7  A    between atoms: C13_13  and  C17_15
REMARK    8  A    between atoms: C13_13  and  C18_16
REMARK    9  A    between atoms: C14_18  and  O6_19
REMARK                            x       y       z     vdW  Elec       q    Type
REMARK                         _______ _______ _______ _____ _____    ______ ____
ROOT
ATOM      1  O1  UNK     0      -2.072   0.526  -1.046  0.00  0.00    +0.000 OA
ATOM      2  O2  UNK     0      -2.828   0.231   1.136  0.00  0.00    +0.000 OA
ATOM      3  C7  UNK     0      -0.941   0.377  -0.240  0.00  0.00    +0.000 C 
ATOM      4  C9  UNK     0      -1.449   0.027   1.154  0.00  0.00    +0.000 C 
ATOM      5  C11 UNK     0      -3.197   0.333  -0.219  0.00  0.00    +0.000 C 
ATOM      6  C15 UNK     0      -3.915  -0.954  -0.643  0.00  0.00    +0.000 C 
ATOM      7  C16 UNK     0      -4.133   1.533  -0.380  0.00  0.00    +0.000 C 
ENDROOT
BRANCH   3   8
ATOM      8  C8  UNK     0      -0.017  -0.705  -0.853  0.00  0.00    +0.000 C 
BRANCH   8   9
ATOM      9  C10 UNK     0       1.306  -0.850  -0.070  0.00  0.00    +0.000 C 
ATOM     10  O3  UNK     0       2.058   0.321  -0.145  0.00  0.00    +0.000 OA
ATOM     11  C13 UNK     0       3.401  -0.088  -0.289  0.00  0.00    +0.000 C 
ATOM     12  O4  UNK     0       3.497  -1.488  -0.453  0.00  0.00    +0.000 OA
ATOM     13  C17 UNK     0       3.997   0.600  -1.521  0.00  0.00    +0.000 C 
ATOM     14  C18 UNK     0       4.179   0.318   0.966  0.00  0.00    +0.000 C 
ATOM     15  C12 UNK     0       2.192  -1.944  -0.609  0.00  0.00    +0.000 C 
ENDBRANCH   8   9
BRANCH   8  16
ATOM     16  O5  UNK     0       0.274  -0.361  -2.186  0.00  0.00    +0.000 OA
ATOM     17  H33 UNK     0      -0.474  -0.700  -2.745  0.00  0.00    +0.000 HD
ENDBRANCH   8  16
ENDBRANCH   3   8
BRANCH   4  18
ATOM     18  C14 UNK     0      -0.818   0.908   2.243  0.00  0.00    +0.000 C 
BRANCH  18  19
ATOM     19  O6  UNK     0      -1.238   0.490   3.513  0.00  0.00    +0.000 OA
ATOM     20  H40 UNK     0      -2.146   0.865   3.652  0.00  0.00    +0.000 HD
ENDBRANCH  18  19
ENDBRANCH   4  18
TORSDOF 5
