REMARK  Name = C:\Users\Maximilian\Desktop\Conformers\converted_pdb\conformers_pdb\Xanthohumol_conf_48.pdb
REMARK  9 active torsions:
REMARK  status: ('A' for Active; 'I' for Inactive)
REMARK    1  A    between atoms: C7_3  and  C8_8
REMARK    2  A    between atoms: C9_4  and  C14_18
REMARK    3  A    between atoms: C11_5  and  C15_6
REMARK    4  A    between atoms: C11_5  and  C16_7
REMARK    5  A    between atoms: C8_8  and  O5_9
REMARK    6  A    between atoms: C8_8  and  C10_11
REMARK    7  A    between atoms: C13_13  and  C17_15
REMARK    8  A    between atoms: C13_13  and  C18_16
REMARK    9  A    between atoms: C14_18  and  O6_19
REMARK                            x       y       z     vdW  Elec       q    Type
REMARK                         _______ _______ _______ _____ _____    ______ ____
ROOT
ATOM      1  O1  UNK     0      -1.992   0.415  -1.587  0.00  0.00    +0.000 OA
ATOM      2  O2  UNK     0      -2.894   0.084   0.536  0.00  0.00    +0.000 OA
ATOM      3  C7  UNK     0      -0.990   0.723  -0.663  0.00  0.00    +0.000 C 
ATOM      4  C9  UNK     0      -1.685   0.762   0.692  0.00  0.00    +0.000 C 
ATOM      5  C11 UNK     0      -3.087  -0.084  -0.851  0.00  0.00    +0.000 C 
ATOM      6  C15 UNK     0      -3.256  -1.577  -1.154  0.00  0.00    +0.000 C 
ATOM      7  C16 UNK     0      -4.350   0.675  -1.273  0.00  0.00    +0.000 C 
ENDROOT
BRANCH   3   8
ATOM      8  C8  UNK     0       0.148  -0.333  -0.763  0.00  0.00    +0.000 C 
BRANCH   8   9
ATOM      9  C10 UNK     0       1.493   0.183  -0.182  0.00  0.00    +0.000 C 
ATOM     10  O3  UNK     0       2.553  -0.596  -0.647  0.00  0.00    +0.000 OA
ATOM     11  C13 UNK     0       3.467  -0.692   0.425  0.00  0.00    +0.000 C 
ATOM     12  O4  UNK     0       2.926  -0.136   1.604  0.00  0.00    +0.000 OA
ATOM     13  C17 UNK     0       3.786  -2.170   0.671  0.00  0.00    +0.000 C 
ATOM     14  C18 UNK     0       4.745   0.068   0.059  0.00  0.00    +0.000 C 
ATOM     15  C12 UNK     0       1.587   0.110   1.320  0.00  0.00    +0.000 C 
ENDBRANCH   8   9
BRANCH   8  16
ATOM     16  O5  UNK     0       0.338  -0.642  -2.123  0.00  0.00    +0.000 OA
ATOM     17  H33 UNK     0       0.661  -1.581  -2.171  0.00  0.00    +0.000 HD
ENDBRANCH   8  16
ENDBRANCH   3   8
BRANCH   4  18
ATOM     18  C14 UNK     0      -1.974   2.197   1.164  0.00  0.00    +0.000 C 
BRANCH  18  19
ATOM     19  O6  UNK     0      -0.781   2.871   1.462  0.00  0.00    +0.000 OA
ATOM     20  H40 UNK     0      -0.524   2.602   2.383  0.00  0.00    +0.000 HD
ENDBRANCH  18  19
ENDBRANCH   4  18
TORSDOF 5
