REMARK  Name = C:\Users\Maximilian\Desktop\Conformers\converted_pdb\conformers_pdb\Xanthohumol_conf_3.pdb
REMARK  9 active torsions:
REMARK  status: ('A' for Active; 'I' for Inactive)
REMARK    1  A    between atoms: C7_3  and  C8_8
REMARK    2  A    between atoms: C9_4  and  C14_18
REMARK    3  A    between atoms: C11_5  and  C15_6
REMARK    4  A    between atoms: C11_5  and  C16_7
REMARK    5  A    between atoms: C8_8  and  O5_9
REMARK    6  A    between atoms: C8_8  and  C10_11
REMARK    7  A    between atoms: C13_13  and  C17_15
REMARK    8  A    between atoms: C13_13  and  C18_16
REMARK    9  A    between atoms: C14_18  and  O6_19
REMARK                            x       y       z     vdW  Elec       q    Type
REMARK                         _______ _______ _______ _____ _____    ______ ____
ROOT
ATOM      1  O1  UNK     0       2.115  -0.574   0.947  0.00  0.00    +0.000 OA
ATOM      2  O2  UNK     0       2.940   0.170  -1.102  0.00  0.00    +0.000 OA
ATOM      3  C7  UNK     0       1.030  -0.067   0.230  0.00  0.00    +0.000 C 
ATOM      4  C9  UNK     0       1.551   0.254  -1.165  0.00  0.00    +0.000 C 
ATOM      5  C11 UNK     0       3.244  -0.485   0.108  0.00  0.00    +0.000 C 
ATOM      6  C15 UNK     0       3.748  -1.899  -0.201  0.00  0.00    +0.000 C 
ATOM      7  C16 UNK     0       4.331   0.311   0.834  0.00  0.00    +0.000 C 
ENDROOT
BRANCH   3   8
ATOM      8  C8  UNK     0      -0.116  -1.111   0.239  0.00  0.00    +0.000 C 
BRANCH   8   9
ATOM      9  C10 UNK     0      -1.400  -0.592  -0.455  0.00  0.00    +0.000 C 
ATOM     10  O3  UNK     0      -1.915   0.520   0.208  0.00  0.00    +0.000 OA
ATOM     11  C13 UNK     0      -3.318   0.368   0.189  0.00  0.00    +0.000 C 
ATOM     12  O4  UNK     0      -3.692  -0.884  -0.346  0.00  0.00    +0.000 OA
ATOM     13  C17 UNK     0      -3.847   0.475   1.622  0.00  0.00    +0.000 C 
ATOM     14  C18 UNK     0      -3.923   1.477  -0.678  0.00  0.00    +0.000 C 
ATOM     15  C12 UNK     0      -2.512  -1.609  -0.482  0.00  0.00    +0.000 C 
ENDBRANCH   8   9
BRANCH   8  16
ATOM     16  O5  UNK     0      -0.390  -1.517   1.559  0.00  0.00    +0.000 OA
ATOM     17  H33 UNK     0      -0.658  -0.712   2.074  0.00  0.00    +0.000 HD
ENDBRANCH   8  16
ENDBRANCH   3   8
BRANCH   4  18
ATOM     18  C14 UNK     0       1.143   1.652  -1.658  0.00  0.00    +0.000 C 
BRANCH  18  19
ATOM     19  O6  UNK     0       1.785   2.654  -0.912  0.00  0.00    +0.000 OA
ATOM     20  H40 UNK     0       1.141   2.964  -0.223  0.00  0.00    +0.000 HD
ENDBRANCH  18  19
ENDBRANCH   4  18
TORSDOF 5
