REMARK  Name = C:\Users\Maximilian\Desktop\Conformers\converted_pdb\conformers_pdb\Xanthohumol_conf_13.pdb
REMARK  9 active torsions:
REMARK  status: ('A' for Active; 'I' for Inactive)
REMARK    1  A    between atoms: C7_3  and  C8_8
REMARK    2  A    between atoms: C9_4  and  C14_18
REMARK    3  A    between atoms: C11_5  and  C15_6
REMARK    4  A    between atoms: C11_5  and  C16_7
REMARK    5  A    between atoms: C8_8  and  O5_9
REMARK    6  A    between atoms: C8_8  and  C10_11
REMARK    7  A    between atoms: C13_13  and  C17_15
REMARK    8  A    between atoms: C13_13  and  C18_16
REMARK    9  A    between atoms: C14_18  and  O6_19
REMARK                            x       y       z     vdW  Elec       q    Type
REMARK                         _______ _______ _______ _____ _____    ______ ____
ROOT
ATOM      1  O1  UNK     0      -0.803  -0.639   0.393  0.00  0.00    +0.000 OA
ATOM      2  O2  UNK     0      -2.344   1.018  -0.146  0.00  0.00    +0.000 OA
ATOM      3  C7  UNK     0      -1.007  -0.700  -0.985  0.00  0.00    +0.000 C 
ATOM      4  C9  UNK     0      -1.763   0.574  -1.336  0.00  0.00    +0.000 C 
ATOM      5  C11 UNK     0      -1.845   0.183   0.878  0.00  0.00    +0.000 C 
ATOM      6  C15 UNK     0      -1.308   1.066   2.009  0.00  0.00    +0.000 C 
ATOM      7  C16 UNK     0      -2.986  -0.695   1.413  0.00  0.00    +0.000 C 
ENDROOT
BRANCH   3   8
ATOM      8  C8  UNK     0       0.320  -0.949  -1.767  0.00  0.00    +0.000 C 
BRANCH   8   9
ATOM      9  C10 UNK     0       1.649  -0.443  -1.138  0.00  0.00    +0.000 C 
ATOM     10  O3  UNK     0       1.965  -1.145   0.022  0.00  0.00    +0.000 OA
ATOM     11  C13 UNK     0       2.773  -0.259   0.769  0.00  0.00    +0.000 C 
ATOM     12  O4  UNK     0       2.604   1.073   0.323  0.00  0.00    +0.000 OA
ATOM     13  C17 UNK     0       2.373  -0.348   2.243  0.00  0.00    +0.000 C 
ATOM     14  C18 UNK     0       4.247  -0.658   0.610  0.00  0.00    +0.000 C 
ATOM     15  C12 UNK     0       1.710   1.009  -0.747  0.00  0.00    +0.000 C 
ENDBRANCH   8   9
BRANCH   8  16
ATOM     16  O5  UNK     0       0.205  -0.549  -3.111  0.00  0.00    +0.000 OA
ATOM     17  H33 UNK     0       0.397   0.423  -3.161  0.00  0.00    +0.000 HD
ENDBRANCH   8  16
ENDBRANCH   3   8
BRANCH   4  18
ATOM     18  C14 UNK     0      -2.856   0.338  -2.390  0.00  0.00    +0.000 C 
BRANCH  18  19
ATOM     19  O6  UNK     0      -3.466   1.551  -2.739  0.00  0.00    +0.000 OA
ATOM     20  H40 UNK     0      -4.118   1.761  -2.020  0.00  0.00    +0.000 HD
ENDBRANCH  18  19
ENDBRANCH   4  18
TORSDOF 5
