REMARK  7 active torsions:
REMARK  status: ('A' for Active; 'I' for Inactive)
REMARK    1  A    between atoms: O1_1  and  C11_11 
REMARK    2  A    between atoms: O2_2  and  C17_17 
REMARK    3  A    between atoms: O4_4  and  C23_23 
REMARK    4  A    between atoms: C8_8  and  C17_17 
REMARK    5  A    between atoms: C9_9  and  C19_19 
REMARK    6  A    between atoms: C19_19  and  C21_21 
REMARK    7  A    between atoms: C21_21  and  C22_22 
ROOT
HETATM    1  C6          0       5.000   0.595   0.395  1.00  0.00    -0.032 C 
HETATM    2  C7          0       5.159   1.994  -0.404  1.00  0.00     0.007 C 
HETATM    3  C8          0       3.988   3.047  -0.163  1.00  0.00     0.008 C 
HETATM    4  C9          0       6.200  -0.335  -0.046  1.00  0.00     0.025 C 
HETATM    5  C10         0       3.628   0.012  -0.016  1.00  0.00     0.012 C 
HETATM    6  C11         0       2.664   2.338  -0.538  1.00  0.00     0.128 C 
HETATM    7  C12         0       6.496   2.679  -0.046  1.00  0.00     0.010 C 
HETATM    8  C13         0       2.471   1.040   0.325  1.00  0.00     0.033 C 
HETATM    9  C14         0       5.051   0.687   1.960  1.00  0.00     0.016 C 
HETATM   10  C15         0       7.711   1.781  -0.333  1.00  0.00     0.034 C 
HETATM   11  C16         0       7.498   0.447   0.312  1.00  0.00    -0.084 C 
HETATM   12  C18         0       4.215   4.255  -1.099  1.00  0.00     0.020 C 
HETATM   13  C20         0       8.460  -0.024   1.110  1.00  0.00     0.015 C 
ENDROOT
BRANCH   4  14
HETATM   14  C19         0       6.106  -1.808   0.575  1.00  0.00     0.037 C 
BRANCH  14  15
HETATM   15  C21         0       7.320  -2.670   0.170  1.00  0.00    -0.010 C 
BRANCH  15  16
HETATM   16  C22         0       7.385  -4.004   0.053  1.00  0.00     0.044 C 
HETATM   17  C24         0       8.581  -4.702  -0.293  1.00  0.00     0.291 C 
HETATM   18  O3          0       8.402  -6.046  -0.134  1.00  0.00    -0.315 OA
HETATM   19  O5          0       9.651  -4.164  -0.596  1.00  0.00    -0.260 OA
HETATM   20  C25         0       7.192  -6.272   0.601  1.00  0.00     0.215 C 
HETATM   21  C23         0       6.327  -5.028   0.202  1.00  0.00     0.181 C 
BRANCH  21  22
HETATM   22  O4          0       5.214  -4.756   1.043  1.00  0.00    -0.389 OA
HETATM   23  H55         0       4.603  -5.539   1.028  1.00  0.00     0.210 HD
ENDBRANCH  21  22
ENDBRANCH  15  16
ENDBRANCH  14  15
ENDBRANCH   4  14
BRANCH   3  24
HETATM   24  C17         0       3.914   3.599   1.317  1.00  0.00     0.176 C 
BRANCH  24  25
HETATM   25  O2          0       2.852   4.558   1.514  1.00  0.00    -0.400 OA
HETATM   26  H51         0       3.031   5.392   1.012  1.00  0.00     0.209 HD
ENDBRANCH  24  25
ENDBRANCH   3  24
BRANCH   6  27
HETATM   27  O1          0       1.579   3.253  -0.336  1.00  0.00    -0.395 OA
HETATM   28  H47         0       0.727   2.819  -0.579  1.00  0.00     0.210 HD
ENDBRANCH   6  27
TORSDOF 7
