REMARK  0 active torsions:
REMARK  status: ('A' for Active; 'I' for Inactive)
ROOT
HETATM    1  O1          0       5.783   0.276   1.422  1.00  0.00    -0.221 OA
HETATM    2  O2          0       5.702   1.561  -1.042  1.00  0.00    -0.319 OA
HETATM    3  O3          0       7.110  -0.370  -0.492  1.00  0.00    -0.286 OA
HETATM    4  O4          0       6.294   1.475   1.217  1.00  0.00    -0.200 OA
HETATM    5  O5          0       8.529  -1.777   0.779  1.00  0.00    -0.265 OA
HETATM    6  C6          0       4.967  -0.345   0.374  1.00  0.00     0.154 C 
HETATM    7  C7          0       3.476   0.096   0.514  1.00  0.00     0.033 C 
HETATM    8  C8          0       4.987  -1.931   0.636  1.00  0.00     0.042 C 
HETATM    9  C9          0       2.520  -0.715  -0.399  1.00  0.00    -0.011 C 
HETATM   10  C10         0       5.700   0.072  -0.869  1.00  0.00     0.311 C 
HETATM   11  C11         0       3.971  -2.756  -0.180  1.00  0.00     0.009 C 
HETATM   12  C12         0       3.298   1.540   0.095  1.00  0.00     0.014 C 
HETATM   13  C13         0       2.565  -2.207   0.012  1.00  0.00     0.005 C 
HETATM   14  C14         0       6.386  -2.598   0.253  1.00  0.00     0.089 C 
HETATM   15  C15         0       5.675   2.259   0.248  1.00  0.00     0.196 C 
HETATM   16  C16         0       4.221   2.599   0.634  1.00  0.00     0.071 C 
HETATM   17  C17         0       1.075  -0.211  -0.202  1.00  0.00     0.010 C 
HETATM   18  C18         0       7.402  -1.561   0.321  1.00  0.00     0.265 C 
HETATM   19  C19         0       6.453  -2.968  -1.284  1.00  0.00     0.021 C 
HETATM   20  C20         0       6.434   3.595   0.174  1.00  0.00     0.082 C 
ENDROOT
TORSDOF 0
