REMARK  4 active torsions:
REMARK  status: ('A' for Active; 'I' for Inactive)
REMARK    1  A    between atoms: O2_2  and  C9_9 
REMARK    2  A    between atoms: O3_3  and  C14_14 
REMARK    3  A    between atoms: O4_4  and  C15_15 
REMARK    4  A    between atoms: C8_8  and  C12_12 
ROOT
HETATM    1  O1          0       5.726  -0.938  -0.000  1.00  0.00    -0.309 OA
HETATM    2  O5          0       5.827   3.036   0.001  1.00  0.00    -0.287 OA
HETATM    3  C6          0       4.529   1.093  -0.000  1.00  0.00     0.084 A 
HETATM    4  C7          0       4.532  -0.239   0.000  1.00  0.00     0.096 A 
HETATM    5  C8          0       6.947  -0.292   0.000  1.00  0.00     0.090 A 
HETATM    6  C9          0       3.265   1.835   0.001  1.00  0.00     0.118 A 
HETATM    7  C10         0       5.791   1.801   0.000  1.00  0.00     0.190 A 
HETATM    8  C11         0       7.012   1.037   0.000  1.00  0.00     0.094 A 
HETATM    9  C13         0       3.257  -0.965  -0.000  1.00  0.00     0.077 A 
HETATM   10  C14         0       2.108   1.173  -0.000  1.00  0.00     0.133 A 
HETATM   11  C15         0       2.105  -0.294  -0.000  1.00  0.00     0.104 A 
ENDROOT
BRANCH   5  12
HETATM   12  C12         0       8.192  -1.060   0.000  1.00  0.00    -0.002 A 
HETATM   13  C16         0       8.166  -2.391  -0.000  1.00  0.00     0.014 A 
HETATM   14  C18         0       9.425  -3.146  -0.000  1.00  0.00     0.001 A 
HETATM   15  C20         0      10.591  -2.501  -0.000  1.00  0.00     0.000 A 
HETATM   16  C19         0      10.619  -1.038  -0.000  1.00  0.00     0.001 A 
HETATM   17  C17         0       9.478  -0.352   0.000  1.00  0.00     0.014 A 
ENDBRANCH   5  12
BRANCH  11  18
HETATM   18  O4          0       0.897  -0.986  -0.001  1.00  0.00    -0.358 OA
HETATM   19  H30         0       1.073  -1.959  -0.001  1.00  0.00     0.217 HD
ENDBRANCH  11  18
BRANCH   6  20
HETATM   20  O2          0       3.282   3.230   0.000  1.00  0.00    -0.357 OA
HETATM   21  H28         0       2.361   3.582   0.000  1.00  0.00     0.217 HD
ENDBRANCH   6  20
BRANCH  10  22
HETATM   22  O3          0       0.901   1.872  -0.000  1.00  0.00    -0.356 OA
HETATM   23  H29         0       0.146   1.237  -0.000  1.00  0.00     0.218 HD
ENDBRANCH  10  22
TORSDOF 4
