REMARK  2 active torsions:
REMARK  status: ('A' for Active; 'I' for Inactive)
REMARK    1  A    between atoms: O3_3  and  C19_19 
REMARK    2  A    between atoms: O4_4  and  C21_21 
ROOT
HETATM    1  O1          0      12.407  -3.103   0.046  1.00  0.00    -0.323 OA
HETATM    2  O2          0      10.481  -4.217  -0.173  1.00  0.00    -0.323 OA
HETATM    3  N5          0       7.716   1.154  -0.102  1.00  0.00    -0.355 N 
HETATM    4  C6          0       8.944   1.931  -0.254  1.00  0.00     0.133 C 
HETATM    5  C7          0      10.220   1.307   0.345  1.00  0.00     0.060 C 
HETATM    6  C8          0       7.720  -0.129  -0.013  1.00  0.00     0.046 A 
HETATM    7  C9          0      10.252  -0.159   0.142  1.00  0.00    -0.041 A 
HETATM    8  C10         0       8.977  -0.885  -0.012  1.00  0.00    -0.000 A 
HETATM    9  C11         0       6.498   1.864  -0.107  1.00  0.00     0.106 A 
HETATM   10  C12         0       6.449  -0.865   0.064  1.00  0.00     0.043 A 
HETATM   11  C13         0       5.329   1.235  -0.032  1.00  0.00     0.026 A 
HETATM   12  C14         0       5.305  -0.190   0.051  1.00  0.00    -0.019 A 
HETATM   13  C15         0      11.415  -0.817   0.181  1.00  0.00     0.047 A 
HETATM   14  C16         0       8.968  -2.220  -0.107  1.00  0.00     0.054 A 
HETATM   15  C17         0      11.374  -2.255   0.047  1.00  0.00     0.105 A 
HETATM   16  C18         0      10.251  -2.902  -0.081  1.00  0.00     0.105 A 
HETATM   17  C19         0       4.082   2.005  -0.033  1.00  0.00     0.114 A 
HETATM   18  C20         0       4.036  -0.871   0.109  1.00  0.00     0.015 A 
HETATM   19  C21         0       2.903   1.330   0.022  1.00  0.00     0.102 A 
HETATM   20  C22         0      11.904  -4.447  -0.095  1.00  0.00     0.352 A 
HETATM   21  C23         0       2.909  -0.162   0.092  1.00  0.00     0.040 A 
ENDROOT
BRANCH  17  22
HETATM   22  O3          0       4.257   3.449  -0.097  1.00  0.00    -0.352 OA
HETATM   23  C24         0       3.100   4.298  -0.090  1.00  0.00     0.210 C 
ENDBRANCH  17  22
BRANCH  19  24
HETATM   24  O4          0       1.642   1.973   0.019  1.00  0.00    -0.353 OA
HETATM   25  C25         0       0.561   1.029   0.076  1.00  0.00     0.210 C 
ENDBRANCH  19  24
TORSDOF 2
