REMARK  4 active torsions:
REMARK  status: ('A' for Active; 'I' for Inactive)
REMARK    1  A    between atoms: O1_1  and  C26_26 
REMARK    2  A    between atoms: O2_2  and  C28_28 
REMARK    3  A    between atoms: C11_11  and  C28_28 
REMARK    4  A    between atoms: C19_19  and  C31_31 
ROOT
HETATM    1  C4          0       7.249  -1.524   0.167  1.00  0.00    -0.032 C 
HETATM    2  C5          0       8.383  -0.705  -0.599  1.00  0.00    -0.032 C 
HETATM    3  C6          0       5.841  -0.732   0.037  1.00  0.00     0.003 C 
HETATM    4  C7          0       8.546   0.749   0.050  1.00  0.00     0.000 C 
HETATM    5  C8          0       4.574  -1.510   0.648  1.00  0.00    -0.035 C 
HETATM    6  C9          0       9.726   1.521  -0.728  1.00  0.00     0.017 C 
HETATM    7  C10         0       4.530  -2.936  -0.109  1.00  0.00     0.004 C 
HETATM    8  C11         0      11.066   0.741  -0.683  1.00  0.00     0.050 C 
HETATM    9  C12         0       7.059  -2.910  -0.493  1.00  0.00     0.011 C 
HETATM   10  C13         0       6.000   0.691   0.669  1.00  0.00     0.006 C 
HETATM   11  C14         0       9.746  -1.465  -0.520  1.00  0.00     0.011 C 
HETATM   12  C15         0       7.164   1.484  -0.036  1.00  0.00     0.006 C 
HETATM   13  C16         0       5.863  -3.718   0.135  1.00  0.00     0.007 C 
HETATM   14  C17         0      10.846  -0.670  -1.297  1.00  0.00     0.022 C 
HETATM   15  C18         0       3.257  -3.839   0.255  1.00  0.00    -0.017 C 
HETATM   16  C19         0      10.266   2.918  -0.198  1.00  0.00     0.019 C 
HETATM   17  C20         0       3.256  -0.777   0.306  1.00  0.00     0.012 C 
HETATM   18  C21         0       7.761  -1.745   1.641  1.00  0.00     0.016 C 
HETATM   19  C22         0       7.988  -0.586  -2.118  1.00  0.00     0.016 C 
HETATM   20  C23         0      11.971   1.652  -1.524  1.00  0.00     0.021 C 
HETATM   21  C24         0      11.458   3.113  -1.189  1.00  0.00     0.011 C 
HETATM   22  C25         0       4.650  -1.566   2.220  1.00  0.00     0.016 C 
HETATM   23  C26         0       2.004  -2.991  -0.078  1.00  0.00     0.126 C 
HETATM   24  C27         0       2.011  -1.649   0.740  1.00  0.00     0.033 C 
HETATM   25  C29         0       3.259  -5.106  -0.619  1.00  0.00     0.018 C 
HETATM   26  C30         0       3.178  -4.333   1.732  1.00  0.00     0.018 C 
ENDROOT
BRANCH   8  27
HETATM   27  C28         0      11.673   0.601   0.731  1.00  0.00     0.149 C 
HETATM   28  O3          0      11.117  -0.031   1.631  1.00  0.00    -0.649 OA
BRANCH  27  29
HETATM   29  O2          0      12.917   1.201   0.975  1.00  0.00    -0.776 OA
HETATM   30  H79         0      13.198   1.028   1.904  1.00  0.00     0.167 HD
ENDBRANCH  27  29
ENDBRANCH   8  27
BRANCH  16  31
HETATM   31  C31         0       9.434   4.185  -0.186  1.00  0.00    -0.088 C 
HETATM   32  C33         0       8.433   4.373  -1.047  1.00  0.00     0.014 C 
HETATM   33  C32         0       9.942   5.361   0.600  1.00  0.00     0.043 C 
ENDBRANCH  16  31
BRANCH  23  34
HETATM   34  O1          0       0.836  -3.766   0.223  1.00  0.00    -0.395 OA
HETATM   35  H75         0       0.025  -3.246   0.002  1.00  0.00     0.210 HD
ENDBRANCH  23  34
TORSDOF 4
