REMARK  7 active torsions:
REMARK  status: ('A' for Active; 'I' for Inactive)
REMARK    1  A    between atoms: O1_1  and  C8_8 
REMARK    2  A    between atoms: O2_2  and  C15_15 
REMARK    3  A    between atoms: O3_3  and  C18_18 
REMARK    4  A    between atoms: O4_4  and  C19_19 
REMARK    5  A    between atoms: C6_6  and  C9_9 
REMARK    6  A    between atoms: C7_7  and  C10_10 
REMARK    7  A    between atoms: C9_9  and  C14_14 
ROOT
HETATM    1  O5          0       2.894   0.557   0.000  1.00  0.00    -0.287 OA
HETATM    2  C9          0       3.896  -0.166   0.000  1.00  0.00     0.184 C 
ENDROOT
BRANCH   2   3
HETATM    3  C6          0       3.733  -1.640   0.000  1.00  0.00     0.047 A 
HETATM    4  C8          0       2.507  -2.175   0.000  1.00  0.00     0.082 A 
HETATM    5  C16         0       2.335  -3.627   0.000  1.00  0.00     0.074 A 
HETATM    6  C18         0       3.397  -4.426   0.000  1.00  0.00     0.068 A 
HETATM    7  C17         0       4.746  -3.848   0.000  1.00  0.00     0.037 A 
HETATM    8  C11         0       4.907  -2.523   0.000  1.00  0.00     0.021 A 
BRANCH   4   9
HETATM    9  O1          0       1.379  -1.363   0.000  1.00  0.00    -0.360 OA
HETATM   10  H29         0       0.566  -1.928   0.000  1.00  0.00     0.217 HD
ENDBRANCH   4   9
BRANCH   6  11
HETATM   11  O3          0       3.221  -5.808   0.000  1.00  0.00    -0.361 OA
HETATM   12  H31         0       4.101  -6.256   0.000  1.00  0.00     0.217 HD
ENDBRANCH   6  11
ENDBRANCH   2   3
BRANCH   2  13
HETATM   13  C14         0       5.223   0.483   0.000  1.00  0.00     0.056 C 
HETATM   14  C10         0       5.232   1.818   0.000  1.00  0.00     0.015 C 
BRANCH  14  15
HETATM   15  C7          0       6.453   2.649   0.000  1.00  0.00    -0.033 A 
HETATM   16  C13         0       6.300   4.107  -0.000  1.00  0.00     0.014 A 
HETATM   17  C20         0       7.367   4.901   0.000  1.00  0.00     0.040 A 
HETATM   18  C19         0       8.707   4.326  -0.001  1.00  0.00     0.098 A 
HETATM   19  C15         0       8.863   2.999   0.001  1.00  0.00     0.099 A 
HETATM   20  C12         0       7.675   2.113  -0.001  1.00  0.00     0.050 A 
BRANCH  18  21
HETATM   21  O4          0       9.813   5.174  -0.000  1.00  0.00    -0.358 OA
HETATM   22  H32         0       9.507   6.117  -0.001  1.00  0.00     0.217 HD
ENDBRANCH  18  21
BRANCH  19  23
HETATM   23  O2          0      10.145   2.444  -0.001  1.00  0.00    -0.358 OA
HETATM   24  H30         0      10.826   3.163  -0.001  1.00  0.00     0.217 HD
ENDBRANCH  19  23
ENDBRANCH  14  15
ENDBRANCH   2  13
TORSDOF 7
