REMARK  3 active torsions:
REMARK  status: ('A' for Active; 'I' for Inactive)
REMARK    1  A    between atoms: O2_2  and  C10_10 
REMARK    2  A    between atoms: O4_4  and  C13_13 
REMARK    3  A    between atoms: C7_7  and  C9_9 
ROOT
HETATM    1  O1          0       5.786  -0.994   0.000  1.00  0.00    -0.309 OA
HETATM    2  O3          0       5.831   3.044  -0.000  1.00  0.00    -0.287 OA
HETATM    3  C5          0       4.536   1.100  -0.000  1.00  0.00     0.081 A 
HETATM    4  C6          0       4.576  -0.350   0.000  1.00  0.00     0.095 A 
HETATM    5  C7          0       6.984  -0.299   0.000  1.00  0.00     0.090 A 
HETATM    6  C8          0       5.792   1.809   0.000  1.00  0.00     0.190 A 
HETATM    7  C10         0       3.369   1.746   0.000  1.00  0.00     0.085 A 
HETATM    8  C11         0       7.020   1.037   0.000  1.00  0.00     0.094 A 
HETATM    9  C12         0       3.441  -1.047  -0.000  1.00  0.00     0.075 A 
HETATM   10  C13         0       2.153  -0.344  -0.000  1.00  0.00     0.071 A 
HETATM   11  C14         0       2.121   0.987  -0.000  1.00  0.00     0.074 A 
ENDROOT
BRANCH   5  12
HETATM   12  C9          0       8.244  -1.038   0.000  1.00  0.00    -0.002 A 
HETATM   13  C16         0       8.239  -2.502   0.000  1.00  0.00     0.014 A 
HETATM   14  C18         0       9.391  -3.171   0.000  1.00  0.00     0.001 A 
HETATM   15  C19         0      10.663  -2.442   0.000  1.00  0.00     0.000 A 
HETATM   16  C17         0      10.667  -1.110   0.000  1.00  0.00     0.001 A 
HETATM   17  C15         0       9.401  -0.376   0.000  1.00  0.00     0.014 A 
ENDBRANCH   5  12
BRANCH  10  18
HETATM   18  O4          0       0.964  -1.065  -0.000  1.00  0.00    -0.361 OA
HETATM   19  H29         0       0.199  -0.436  -0.000  1.00  0.00     0.217 HD
ENDBRANCH  10  18
BRANCH   7  20
HETATM   20  O2          0       3.330   3.135  -0.000  1.00  0.00    -0.360 OA
HETATM   21  H28         0       2.389   3.437  -0.000  1.00  0.00     0.217 HD
ENDBRANCH   7  20
TORSDOF 3
