REMARK  11 active torsions:
REMARK  status: ('A' for Active; 'I' for Inactive)
REMARK    1  A    between atoms: O1_1  and  C12_12 
REMARK    2  A    between atoms: O2_2  and  C13_13 
REMARK    3  A    between atoms: O3_3  and  C18_18 
REMARK    4  A    between atoms: O4_4  and  C19_19 
REMARK    5  A    between atoms: C7_7  and  C16_16 
REMARK    6  A    between atoms: C8_8  and  C17_17 
REMARK    7  A    between atoms: C9_9  and  C21_21 
REMARK    8  A    between atoms: C9_9  and  C20_20 
REMARK    9  A    between atoms: C16_16  and  C24_24 
REMARK   10  A    between atoms: C20_20  and  C24_24 
REMARK   11  A    between atoms: C21_21  and  C25_25 
ROOT
HETATM    1  C9          0       6.737  -0.080  -0.000  1.00  0.00     0.165 C 
ENDROOT
BRANCH   1   2
HETATM    2  C21         0       5.336  -0.812   0.000  1.00  0.00     0.156 C 
HETATM    3  O6          0       4.296  -0.142   0.000  1.00  0.00    -0.293 OA
BRANCH   2   4
HETATM    4  C25         0       5.230  -2.350  -0.000  1.00  0.00     0.051 C 
HETATM    5  C17         0       4.030  -2.976   0.000  1.00  0.00     0.015 C 
BRANCH   5   6
HETATM    6  C8          0       3.857  -4.501  -0.000  1.00  0.00    -0.033 A 
HETATM    7  C11         0       2.627  -5.043   0.000  1.00  0.00     0.051 A 
HETATM    8  C13         0       2.446  -6.531  -0.000  1.00  0.00     0.102 A 
HETATM    9  C19         0       3.513  -7.325  -0.000  1.00  0.00     0.099 A 
HETATM   10  C23         0       4.861  -6.735  -0.000  1.00  0.00     0.040 A 
HETATM   11  C15         0       5.026  -5.405  -0.000  1.00  0.00     0.014 A 
BRANCH   8  12
HETATM   12  O2          0       1.166  -7.127   0.000  1.00  0.00    -0.353 OA
HETATM   13  C27         0       0.125  -6.149   0.000  1.00  0.00     0.210 C 
ENDBRANCH   8  12
BRANCH   9  14
HETATM   14  O4          0       3.338  -8.719  -0.000  1.00  0.00    -0.358 OA
HETATM   15  H41         0       4.216  -9.174  -0.000  1.00  0.00     0.217 HD
ENDBRANCH   9  14
ENDBRANCH   5   6
ENDBRANCH   2   4
ENDBRANCH   1   2
BRANCH   1  16
HETATM   16  C20         0       6.670   1.500   0.000  1.00  0.00     0.156 C 
HETATM   17  O5          0       5.570   2.065   0.000  1.00  0.00    -0.293 OA
BRANCH  16  18
HETATM   18  C24         0       7.950   2.361   0.000  1.00  0.00     0.051 C 
BRANCH  18  19
HETATM   19  C16         0       7.891   3.712   0.000  1.00  0.00     0.015 C 
BRANCH  19  20
HETATM   20  C7          0       9.126   4.625  -0.000  1.00  0.00    -0.033 A 
HETATM   21  C14         0      10.494   4.065   0.000  1.00  0.00     0.014 A 
HETATM   22  C22         0      11.563   4.872  -0.001  1.00  0.00     0.040 A 
HETATM   23  C18         0      11.399   6.334   0.001  1.00  0.00     0.099 A 
HETATM   24  C12         0      10.179   6.862  -0.001  1.00  0.00     0.102 A 
HETATM   25  C10         0       8.980   5.961   0.001  1.00  0.00     0.051 A 
BRANCH  23  26
HETATM   26  O3          0      12.519   7.183  -0.000  1.00  0.00    -0.358 OA
HETATM   27  H40         0      13.353   6.650  -0.000  1.00  0.00     0.217 HD
ENDBRANCH  23  26
BRANCH  24  28
HETATM   28  O1          0      10.055   8.268   0.000  1.00  0.00    -0.353 OA
HETATM   29  C26         0       8.687   8.681   0.001  1.00  0.00     0.210 C 
ENDBRANCH  24  28
ENDBRANCH  19  20
ENDBRANCH  18  19
ENDBRANCH  16  18
ENDBRANCH   1  16
TORSDOF 11
