REMARK  4 active torsions:
REMARK  status: ('A' for Active; 'I' for Inactive)
REMARK    1  A    between atoms: O2_2  and  C14_14 
REMARK    2  A    between atoms: N3_3  and  C11_11 
REMARK    3  A    between atoms: N8_8  and  C19_19 
REMARK    4  A    between atoms: C9_9  and  C14_14 
ROOT
HETATM    1 CL1          0       3.394  -5.068   0.281  1.00  0.00    -0.059 Cl
HETATM    2  N3          0       5.760  -0.854  -0.078  1.00  0.00    -0.223 N 
HETATM    3  N4          0       6.551  -1.964   0.028  1.00  0.00    -0.063 NA
HETATM    4  N5          0       5.846  -2.970   0.121  1.00  0.00    -0.125 NA
HETATM    5  N6          0       3.246  -0.592  -0.098  1.00  0.00    -0.041 NA
HETATM    6  N7          0       2.211  -2.729   0.085  1.00  0.00    -0.048 NA
HETATM    7  C16         0       4.456  -1.275  -0.034  1.00  0.00     0.201 A 
HETATM    8  C17         0       4.511  -2.563   0.081  1.00  0.00     0.169 A 
HETATM    9  C18         0       3.325  -3.348   0.143  1.00  0.00     0.179 A 
HETATM   10  C19         0       2.167  -1.290  -0.037  1.00  0.00     0.723 A 
ENDROOT
BRANCH   2  11
HETATM   11  C11         0       6.274   0.476  -0.317  1.00  0.00     0.137 C 
HETATM   12  C13         0       5.318   1.581   0.063  1.00  0.00    -0.004 C 
HETATM   13  C15         0       5.756   2.753   0.534  1.00  0.00    -0.028 C 
HETATM   14  C12         0       7.230   3.030   0.760  1.00  0.00     0.033 C 
HETATM   15  C9          0       8.136   2.044  -0.008  1.00  0.00     0.015 C 
HETATM   16  C10         0       7.673   0.635   0.318  1.00  0.00     0.038 C 
BRANCH  15  17
HETATM   17  C14         0       9.599   2.252   0.432  1.00  0.00     0.169 C 
BRANCH  17  18
HETATM   18  O2          0      10.016   3.582   0.119  1.00  0.00    -0.400 OA
HETATM   19  H30         0      10.958   3.707   0.399  1.00  0.00     0.209 HD
ENDBRANCH  17  18
ENDBRANCH  15  17
ENDBRANCH   2  11
BRANCH  10  20
HETATM   20  N8          0       0.922  -0.661  -0.089  1.00  0.00    -0.231 N 
HETATM   21  H31         0       0.088  -1.207  -0.045  1.00  0.00     0.174 HD
HETATM   22  H32         0       0.864   0.327  -0.164  1.00  0.00     0.174 HD
ENDBRANCH  10  20
TORSDOF 4
