REMARK  4 active torsions:
REMARK  status: ('A' for Active; 'I' for Inactive)
REMARK    1  A    between atoms: O3_3  and  C15_15 
REMARK    2  A    between atoms: O4_4  and  C16_16 
REMARK    3  A    between atoms: O5_5  and  C21_21 
REMARK    4  A    between atoms: O6_6  and  C22_22 
ROOT
HETATM    1  O1          0       6.999   0.675   0.000  1.00  0.00    -0.271 OA
HETATM    2  O2          0       2.197  -0.644  -0.000  1.00  0.00    -0.271 OA
HETATM    3  O7          0       8.120  -1.288   0.000  1.00  0.00    -0.259 OA
HETATM    4  O8          0       1.076   1.319  -0.000  1.00  0.00    -0.259 OA
HETATM    5  C9          0       4.630   0.736  -0.000  1.00  0.00     0.031 A 
HETATM    6  C10         0       4.566  -0.704  -0.000  1.00  0.00     0.031 A 
HETATM    7  C11         0       3.399   1.472  -0.000  1.00  0.00     0.056 A 
HETATM    8  C12         0       5.797  -1.440   0.000  1.00  0.00     0.056 A 
HETATM    9  C13         0       5.804   1.371  -0.000  1.00  0.00     0.127 A 
HETATM   10  C14         0       3.391  -1.340  -0.000  1.00  0.00     0.127 A 
HETATM   11  C15         0       5.827   2.836  -0.000  1.00  0.00     0.134 A 
HETATM   12  C16         0       3.367  -2.804  -0.000  1.00  0.00     0.134 A 
HETATM   13  C17         0       3.404   2.802  -0.000  1.00  0.00     0.058 A 
HETATM   14  C18         0       5.791  -2.771   0.000  1.00  0.00     0.058 A 
HETATM   15  C19         0       7.036  -0.694   0.000  1.00  0.00     0.299 A 
HETATM   16  C20         0       2.159   0.725  -0.000  1.00  0.00     0.299 A 
HETATM   17  C21         0       4.680   3.519  -0.000  1.00  0.00     0.102 A 
HETATM   18  C22         0       4.514  -3.488  -0.000  1.00  0.00     0.102 A 
ENDROOT
BRANCH  11  19
HETATM   19  O3          0       7.052   3.504   0.000  1.00  0.00    -0.356 OA
HETATM   20  H25         0       6.906   4.480   0.000  1.00  0.00     0.218 HD
ENDBRANCH  11  19
BRANCH  17  21
HETATM   21  O5          0       4.686   4.910  -0.000  1.00  0.00    -0.358 OA
HETATM   22  H27         0       3.755   5.242  -0.000  1.00  0.00     0.217 HD
ENDBRANCH  17  21
BRANCH  12  23
HETATM   23  O4          0       2.142  -3.471  -0.000  1.00  0.00    -0.356 OA
HETATM   24  H26         0       2.287  -4.447  -0.000  1.00  0.00     0.218 HD
ENDBRANCH  12  23
BRANCH  18  25
HETATM   25  O6          0       4.507  -4.878   0.000  1.00  0.00    -0.358 OA
HETATM   26  H28         0       5.438  -5.212   0.000  1.00  0.00     0.217 HD
ENDBRANCH  18  25
TORSDOF 4
