REMARK  12 active torsions:
REMARK  status: ('A' for Active; 'I' for Inactive)
REMARK    1  A    between atoms: O2_2  and  C12_12 
REMARK    2  A    between atoms: O2_2  and  C24_24 
REMARK    3  A    between atoms: O3_3  and  C18_18 
REMARK    4  A    between atoms: O4_4  and  C23_23 
REMARK    5  A    between atoms: O5_5  and  C25_25 
REMARK    6  A    between atoms: O6_6  and  C26_26 
REMARK    7  A    between atoms: O8_8  and  C27_27 
REMARK    8  A    between atoms: O9_9  and  C31_31 
REMARK    9  A    between atoms: O10_10  and  C32_32 
REMARK   10  A    between atoms: O11_11  and  C33_33 
REMARK   11  A    between atoms: C13_13  and  C16_16 
REMARK   12  A    between atoms: C24_24  and  C28_28 
ROOT
HETATM    1  O1          0       5.608  -2.348   0.220  1.00  0.00    -0.338 OA
HETATM    2  C12         0       6.768  -0.174  -0.084  1.00  0.00     0.170 C 
HETATM    3  C13         0       6.781  -1.618   0.550  1.00  0.00     0.192 C 
HETATM    4  C14         0       5.491   0.531   0.495  1.00  0.00     0.080 C 
HETATM    5  C15         0       4.257  -0.303   0.266  1.00  0.00     0.011 A 
HETATM    6  C17         0       4.382  -1.751   0.118  1.00  0.00     0.081 A 
HETATM    7  C18         0       3.052   0.269   0.216  1.00  0.00     0.077 A 
HETATM    8  C19         0       3.293  -2.498  -0.079  1.00  0.00     0.074 A 
HETATM    9  C22         0       1.855  -0.551  -0.002  1.00  0.00     0.073 A 
HETATM   10  C23         0       1.968  -1.869  -0.147  1.00  0.00     0.071 A 
ENDROOT
BRANCH   2  11
HETATM   11  O2          0       8.024   0.582   0.242  1.00  0.00    -0.309 OA
BRANCH  11  12
HETATM   12  C24         0       8.074   1.980  -0.142  1.00  0.00     0.294 C 
HETATM   13  O7          0       7.084   2.559  -0.600  1.00  0.00    -0.259 OA
BRANCH  12  14
HETATM   14  C28         0       9.342   2.770  -0.010  1.00  0.00     0.045 A 
HETATM   15  C29         0       9.305   4.100  -0.139  1.00  0.00     0.057 A 
HETATM   16  C32         0      10.542   4.899  -0.047  1.00  0.00     0.102 A 
HETATM   17  C33         0      11.717   4.290   0.112  1.00  0.00     0.132 A 
HETATM   18  C31         0      11.768   2.826   0.237  1.00  0.00     0.102 A 
HETATM   19  C30         0      10.642   2.103   0.189  1.00  0.00     0.057 A 
BRANCH  16  20
HETATM   20  O10         0      10.484   6.290  -0.148  1.00  0.00    -0.358 OA
HETATM   21  H50         0       9.546   6.577  -0.257  1.00  0.00     0.217 HD
ENDBRANCH  16  20
BRANCH  17  22
HETATM   22  O11         0      12.902   5.038   0.191  1.00  0.00    -0.356 OA
HETATM   23  H51         0      12.709   6.004   0.097  1.00  0.00     0.218 HD
ENDBRANCH  17  22
BRANCH  18  24
HETATM   24  O9          0      13.000   2.191   0.393  1.00  0.00    -0.358 OA
HETATM   25  H49         0      13.727   2.866   0.393  1.00  0.00     0.217 HD
ENDBRANCH  18  24
ENDBRANCH  12  14
ENDBRANCH  11  12
ENDBRANCH   2  11
BRANCH   3  26
HETATM   26  C16         0       7.987  -2.495   0.244  1.00  0.00    -0.021 A 
HETATM   27  C20         0       7.833  -3.820   0.191  1.00  0.00     0.049 A 
HETATM   28  C26         0       9.001  -4.698  -0.005  1.00  0.00     0.102 A 
HETATM   29  C27         0      10.221  -4.168  -0.096  1.00  0.00     0.132 A 
HETATM   30  C25         0      10.387  -2.713  -0.031  1.00  0.00     0.102 A 
HETATM   31  C21         0       9.328  -1.924   0.132  1.00  0.00     0.049 A 
BRANCH  28  32
HETATM   32  O6          0       8.832  -6.082  -0.062  1.00  0.00    -0.358 OA
HETATM   33  H47         0       7.875  -6.306   0.033  1.00  0.00     0.217 HD
ENDBRANCH  28  32
BRANCH  29  34
HETATM   34  O8          0      11.343  -4.986  -0.262  1.00  0.00    -0.356 OA
HETATM   35  H48         0      11.074  -5.936  -0.281  1.00  0.00     0.218 HD
ENDBRANCH  29  34
BRANCH  30  36
HETATM   36  O5          0      11.655  -2.149  -0.123  1.00  0.00    -0.358 OA
HETATM   37  H46         0      12.329  -2.862  -0.230  1.00  0.00     0.217 HD
ENDBRANCH  30  36
ENDBRANCH   3  26
BRANCH   7  38
HETATM   38  O3          0       2.923   1.642   0.368  1.00  0.00    -0.360 OA
HETATM   39  H42         0       1.965   1.889   0.306  1.00  0.00     0.217 HD
ENDBRANCH   7  38
BRANCH  10  40
HETATM   40  O4          0       0.829  -2.649  -0.347  1.00  0.00    -0.361 OA
HETATM   41  H43         0       0.024  -2.067  -0.356  1.00  0.00     0.217 HD
ENDBRANCH  10  40
TORSDOF 12
