REMARK  6 active torsions:
REMARK  status: ('A' for Active; 'I' for Inactive)
REMARK    1  A    between atoms: O1_1  and  C7_7 
REMARK    2  A    between atoms: O2_2  and  C14_14 
REMARK    3  A    between atoms: O4_4  and  C19_19 
REMARK    4  A    between atoms: C5_5  and  C8_8 
REMARK    5  A    between atoms: C6_6  and  C10_10 
REMARK    6  A    between atoms: C8_8  and  C11_11 
ROOT
HETATM    1  O3          0       2.837   0.572   0.000  1.00  0.00    -0.287 OA
HETATM    2  C8          0       3.856  -0.126   0.000  1.00  0.00     0.184 C 
ENDROOT
BRANCH   2   3
HETATM    3  C11         0       5.163   0.548   0.000  1.00  0.00     0.056 C 
HETATM    4  C10         0       5.155   1.883   0.000  1.00  0.00     0.015 C 
BRANCH   4   5
HETATM    5  C6          0       6.376   2.702   0.000  1.00  0.00    -0.036 A 
HETATM    6  C16         0       6.247   4.163   0.000  1.00  0.00     0.014 A 
HETATM    7  C18         0       7.330   4.936  -0.000  1.00  0.00     0.037 A 
HETATM    8  C19         0       8.659   4.330  -0.000  1.00  0.00     0.065 A 
HETATM    9  C17         0       8.786   3.002  -0.000  1.00  0.00     0.037 A 
HETATM   10  C15         0       7.587   2.144   0.000  1.00  0.00     0.014 A 
BRANCH   8  11
HETATM   11  O4          0       9.788   5.144  -0.000  1.00  0.00    -0.361 OA
HETATM   12  H31         0       9.509   6.096  -0.000  1.00  0.00     0.217 HD
ENDBRANCH   8  11
ENDBRANCH   4   5
ENDBRANCH   2   3
BRANCH   2  13
HETATM   13  C5          0       3.734  -1.601  -0.000  1.00  0.00     0.047 A 
HETATM   14  C7          0       2.524  -2.170   0.001  1.00  0.00     0.082 A 
HETATM   15  C12         0       2.394  -3.625  -0.000  1.00  0.00     0.074 A 
HETATM   16  C14         0       3.478  -4.394   0.000  1.00  0.00     0.068 A 
HETATM   17  C13         0       4.811  -3.778  -0.000  1.00  0.00     0.037 A 
HETATM   18  C9          0       4.934  -2.449   0.000  1.00  0.00     0.021 A 
BRANCH  14  19
HETATM   19  O1          0       1.376  -1.388  -0.000  1.00  0.00    -0.360 OA
HETATM   20  H29         0       0.579  -1.974  -0.000  1.00  0.00     0.217 HD
ENDBRANCH  14  19
BRANCH  16  21
HETATM   21  O2          0       3.342  -5.780  -0.000  1.00  0.00    -0.361 OA
HETATM   22  H30         0       4.236  -6.202  -0.000  1.00  0.00     0.217 HD
ENDBRANCH  16  21
ENDBRANCH   2  13
TORSDOF 6
