REMARK  5 active torsions:
REMARK  status: ('A' for Active; 'I' for Inactive)
REMARK    1  A    between atoms: O2_2  and  C11_11 
REMARK    2  A    between atoms: O3_3  and  C13_13 
REMARK    3  A    between atoms: O5_5  and  C15_15 
REMARK    4  A    between atoms: O6_6  and  C21_21 
REMARK    5  A    between atoms: C9_9  and  C12_12 
ROOT
HETATM    1  O1          0       5.888  -0.661   0.000  1.00  0.00    -0.306 OA
HETATM    2  O4          0       5.807   3.369   0.000  1.00  0.00    -0.284 OA
HETATM    3  C7          0       4.584   1.399   0.002  1.00  0.00     0.084 A 
HETATM    4  C8          0       4.656  -0.043  -0.001  1.00  0.00     0.096 A 
HETATM    5  C9          0       7.089   0.057  -0.001  1.00  0.00     0.123 A 
HETATM    6  C10         0       5.812   2.133  -0.001  1.00  0.00     0.223 A 
HETATM    7  C11         0       7.074   1.411   0.001  1.00  0.00     0.152 A 
HETATM    8  C13         0       3.407   2.027  -0.002  1.00  0.00     0.085 A 
HETATM    9  C14         0       3.531  -0.761   0.001  1.00  0.00     0.075 A 
HETATM   10  C15         0       2.226  -0.076  -0.001  1.00  0.00     0.071 A 
HETATM   11  C16         0       2.173   1.253   0.001  1.00  0.00     0.074 A 
ENDROOT
BRANCH   5  12
HETATM   12  C12         0       8.379  -0.734   0.000  1.00  0.00     0.001 A 
HETATM   13  C18         0       8.328  -2.205  -0.000  1.00  0.00     0.017 A 
HETATM   14  C20         0       9.459  -2.917  -0.000  1.00  0.00     0.037 A 
HETATM   15  C21         0      10.759  -2.235  -0.000  1.00  0.00     0.065 A 
HETATM   16  C19         0      10.807  -0.908  -0.000  1.00  0.00     0.037 A 
HETATM   17  C17         0       9.573  -0.136  -0.000  1.00  0.00     0.017 A 
BRANCH  15  18
HETATM   18  O6          0      11.945  -2.965  -0.000  1.00  0.00    -0.361 OA
HETATM   19  H31         0      11.741  -3.930  -0.000  1.00  0.00     0.217 HD
ENDBRANCH  15  18
ENDBRANCH   5  12
BRANCH   7  20
HETATM   20  O2          0       8.242   2.171  -0.000  1.00  0.00    -0.355 OA
HETATM   21  H28         0       8.018   3.130  -0.000  1.00  0.00     0.218 HD
ENDBRANCH   7  20
BRANCH  10  22
HETATM   22  O5          0       1.045  -0.809   0.000  1.00  0.00    -0.361 OA
HETATM   23  H30         0       0.272  -0.185   0.000  1.00  0.00     0.217 HD
ENDBRANCH  10  22
BRANCH   8  24
HETATM   24  O3          0       3.347   3.417   0.000  1.00  0.00    -0.360 OA
HETATM   25  H29         0       2.403   3.706  -0.000  1.00  0.00     0.217 HD
ENDBRANCH   8  24
TORSDOF 5
