REMARK  2 active torsions:
REMARK  status: ('A' for Active; 'I' for Inactive)
REMARK    1  A    between atoms: N4_4  and  C7_7 
REMARK    2  A    between atoms: N6_6  and  C16_16 
ROOT
HETATM    1  O1          0       4.842  -2.442  -0.060  1.00  0.00    -0.267 OA
HETATM    2  N4          0       5.331  -0.116  -0.144  1.00  0.00    -0.330 N 
HETATM    3  C9          0       4.501   1.121  -0.105  1.00  0.00     0.169 A 
HETATM    4  C10         0       3.109   0.491   0.021  1.00  0.00     0.002 A 
HETATM    5  C11         0       4.498  -1.254  -0.028  1.00  0.00     0.255 A 
HETATM    6  C13         0       3.160  -0.822   0.061  1.00  0.00     0.042 A 
HETATM    7  C16         0       1.823   1.187   0.084  1.00  0.00     0.034 A 
HETATM    8  C17         0       1.976  -1.648   0.168  1.00  0.00     0.018 A 
HETATM    9  C18         0       0.711   0.451   0.180  1.00  0.00     0.029 A 
HETATM   10  C19         0       0.791  -1.036   0.225  1.00  0.00     0.003 A 
ENDROOT
BRANCH   2  11
HETATM   11  C7          0       6.808  -0.166  -0.383  1.00  0.00     0.180 C 
HETATM   12  C8          0       7.475  -1.411   0.184  1.00  0.00     0.044 C 
HETATM   13  C12         0       8.936  -1.450  -0.263  1.00  0.00     0.106 C 
HETATM   14  C15         0       9.619  -0.164   0.100  1.00  0.00     0.224 C 
HETATM   15  N5          0       8.937   0.978   0.261  1.00  0.00    -0.296 N 
HETATM   16  O3          0      10.845  -0.160   0.254  1.00  0.00    -0.273 OA
HETATM   17  H27         0       9.436   1.797   0.521  1.00  0.00     0.171 HD
HETATM   18  C14         0       7.612   1.064   0.071  1.00  0.00     0.247 C 
HETATM   19  O2          0       7.078   2.165   0.237  1.00  0.00    -0.271 OA
ENDBRANCH   2  11
BRANCH   7  20
HETATM   20  N6          0       1.734   2.583   0.039  1.00  0.00    -0.399 N 
HETATM   21  H31         0       0.840   3.020   0.075  1.00  0.00     0.156 HD
HETATM   22  H32         0       2.551   3.139  -0.030  1.00  0.00     0.156 HD
ENDBRANCH   7  20
TORSDOF 2
