REMARK  8 active torsions:
REMARK  status: ('A' for Active; 'I' for Inactive)
REMARK    1  A    between atoms: O1_1  and  C11_11 
REMARK    2  A    between atoms: O2_2  and  C14_14 
REMARK    3  A    between atoms: O4_4  and  C25_25 
REMARK    4  A    between atoms: C5_5  and  C9_9 
REMARK    5  A    between atoms: C5_5  and  C6_6 
REMARK    6  A    between atoms: C12_12  and  C15_15 
REMARK    7  A    between atoms: C17_17  and  C18_18 
REMARK    8  A    between atoms: C18_18  and  C20_20 
ROOT
HETATM    1  C6          0       3.631   0.708  -0.070  1.00  0.00    -0.012 A 
HETATM    2  C10         0       4.945   0.041  -0.079  1.00  0.00     0.025 A 
HETATM    3  C11         0       2.515  -0.032   0.046  1.00  0.00     0.075 A 
HETATM    4  C12         0       5.039  -1.281   0.022  1.00  0.00    -0.002 A 
HETATM    5  C13         0       2.625  -1.491   0.154  1.00  0.00     0.074 A 
HETATM    6  C14         0       3.817  -2.090   0.123  1.00  0.00     0.081 A 
ENDROOT
BRANCH   4   7
HETATM    7  C15         0       6.361  -1.946   0.021  1.00  0.00     0.018 C 
HETATM    8  C17         0       7.521  -1.275  -0.008  1.00  0.00     0.056 C 
BRANCH   8   9
HETATM    9  C18         0       8.770  -2.071  -0.013  1.00  0.00     0.182 C 
HETATM   10  O3          0       8.683  -3.303  -0.025  1.00  0.00    -0.288 OA
BRANCH   9  11
HETATM   11  C20         0      10.123  -1.460  -0.005  1.00  0.00     0.014 A 
HETATM   12  C21         0      11.184  -2.268  -0.026  1.00  0.00     0.018 A 
HETATM   13  C23         0      12.542  -1.721  -0.020  1.00  0.00     0.037 A 
HETATM   14  C25         0      12.728  -0.404   0.010  1.00  0.00     0.065 A 
HETATM   15  C24         0      11.562   0.498   0.035  1.00  0.00     0.037 A 
HETATM   16  C22         0      10.322  -0.003   0.028  1.00  0.00     0.018 A 
BRANCH  14  17
HETATM   17  O4          0      14.025   0.114   0.015  1.00  0.00    -0.361 OA
HETATM   18  H47         0      14.682  -0.632  -0.006  1.00  0.00     0.217 HD
ENDBRANCH  14  17
ENDBRANCH   9  11
ENDBRANCH   8   9
ENDBRANCH   4   7
BRANCH   6  19
HETATM   19  O2          0       3.922  -3.493   0.182  1.00  0.00    -0.355 OA
HETATM   20  C19         0       2.627  -4.118   0.232  1.00  0.00     0.210 C 
ENDBRANCH   6  19
BRANCH   1  21
HETATM   21  C5          0       3.604   2.223  -0.255  1.00  0.00    -0.001 C 
HETATM   22  C8          0       3.117   2.503  -1.690  1.00  0.00     0.024 C 
HETATM   23  C7          0       5.021   2.815  -0.136  1.00  0.00     0.024 C 
BRANCH  21  24
HETATM   24  C9          0       2.653   2.951   0.655  1.00  0.00    -0.023 C 
HETATM   25  C16         0       2.582   4.281   0.591  1.00  0.00     0.008 C 
ENDBRANCH  21  24
ENDBRANCH   1  21
BRANCH   3  26
HETATM   26  O1          0       1.242   0.547   0.061  1.00  0.00    -0.360 OA
HETATM   27  H38         0       0.556  -0.164   0.160  1.00  0.00     0.217 HD
ENDBRANCH   3  26
TORSDOF 8
