REMARK  6 active torsions:
REMARK  status: ('A' for Active; 'I' for Inactive)
REMARK    1  A    between atoms: O1_1  and  C17_17 
REMARK    2  A    between atoms: N2_2  and  C8_8 
REMARK    3  A    between atoms: N2_2  and  C16_16 
REMARK    4  A    between atoms: N3_3  and  C11_11 
REMARK    5  A    between atoms: N7_7  and  C22_22 
REMARK    6  A    between atoms: C12_12  and  C17_17 
ROOT
HETATM    1  N3          0       6.075   0.358  -0.008  1.00  0.00    -0.315 N 
HETATM    2  N4          0       6.091  -1.863   0.057  1.00  0.00    -0.236 NA
HETATM    3  N5          0       2.441  -1.411  -0.035  1.00  0.00    -0.043 NA
HETATM    4  N6          0       3.663   0.622  -0.040  1.00  0.00    -0.043 NA
HETATM    5  C16         0       3.651  -2.135  -0.005  1.00  0.00     0.176 A 
HETATM    6  C19         0       4.745  -0.042   0.001  1.00  0.00     0.183 A 
HETATM    7  C20         0       4.763  -1.416   0.026  1.00  0.00     0.151 A 
HETATM    8  C21         0       6.865  -0.830   0.040  1.00  0.00     0.212 A 
HETATM    9  C22         0       2.432  -0.128  -0.050  1.00  0.00     0.724 A 
ENDROOT
BRANCH   1  10
HETATM   10  C11         0       6.628   1.699  -0.246  1.00  0.00     0.115 C 
HETATM   11  C13         0       8.034   1.875   0.396  1.00  0.00     0.036 C 
HETATM   12  C12         0       8.505   3.286   0.024  1.00  0.00     0.015 C 
HETATM   13  C14         0       7.591   4.296   0.748  1.00  0.00     0.033 C 
HETATM   14  C18         0       6.120   4.011   0.522  1.00  0.00    -0.028 C 
HETATM   15  C15         0       5.679   2.823   0.092  1.00  0.00    -0.005 C 
BRANCH  12  16
HETATM   16  C17         0       9.967   3.531   0.468  1.00  0.00     0.169 C 
BRANCH  16  17
HETATM   17  O1          0      10.367   4.862   0.109  1.00  0.00    -0.400 OA
HETATM   18  H40         0      11.305   5.019   0.396  1.00  0.00     0.209 HD
ENDBRANCH  16  17
ENDBRANCH  12  16
ENDBRANCH   1  10
BRANCH   5  19
HETATM   19  N2          0       3.732  -3.570  -0.032  1.00  0.00    -0.368 N 
HETATM   20  H32         0       4.638  -3.974  -0.065  1.00  0.00     0.161 HD
BRANCH  19  21
HETATM   21  C8          0       2.575  -4.485  -0.131  1.00  0.00     0.083 A 
HETATM   22  C9          0       1.126  -3.964  -0.211  1.00  0.00     0.027 A 
HETATM   23  C10         0       1.696  -4.484   1.130  1.00  0.00     0.027 A 
ENDBRANCH  19  21
ENDBRANCH   5  19
BRANCH   9  24
HETATM   24  N7          0       1.202   0.531  -0.083  1.00  0.00    -0.231 N 
HETATM   25  H41         0       0.356   0.000  -0.094  1.00  0.00     0.174 HD
HETATM   26  H42         0       1.166   1.522  -0.098  1.00  0.00     0.174 HD
ENDBRANCH   9  24
TORSDOF 6
