REMARK  11 active torsions:
REMARK  status: ('A' for Active; 'I' for Inactive)
REMARK    1  A    between atoms: O2_2  and  C16_16 
REMARK    2  A    between atoms: O2_2  and  C18_18 
REMARK    3  A    between atoms: O3_3  and  C12_12 
REMARK    4  A    between atoms: O4_4  and  C13_13 
REMARK    5  A    between atoms: O5_5  and  C14_14 
REMARK    6  A    between atoms: O6_6  and  C17_17 
REMARK    7  A    between atoms: O8_8  and  C23_23 
REMARK    8  A    between atoms: O10_10  and  C30_30 
REMARK    9  A    between atoms: O11_11  and  C32_32 
REMARK   10  A    between atoms: C15_15  and  C17_17 
REMARK   11  A    between atoms: C25_25  and  C27_27 
ROOT
HETATM    1  O7          0       9.529   1.774   0.241  1.00  0.00    -0.309 OA
HETATM    2  O9          0       6.243   4.138  -0.191  1.00  0.00    -0.287 OA
HETATM    3  C18         0       6.668  -0.889   0.123  1.00  0.00     0.077 A 
HETATM    4  C19         0       8.067  -0.230   0.254  1.00  0.00     0.075 A 
HETATM    5  C20         0       5.625  -0.085  -0.082  1.00  0.00     0.074 A 
HETATM    6  C21         0       8.227   1.113   0.168  1.00  0.00     0.095 A 
HETATM    7  C22         0       7.045   1.939  -0.022  1.00  0.00     0.081 A 
HETATM    8  C23         0       5.825   1.393  -0.132  1.00  0.00     0.085 A 
HETATM    9  C24         0       7.216   3.386  -0.071  1.00  0.00     0.190 A 
HETATM   10  C25         0       9.644   3.217   0.121  1.00  0.00     0.090 A 
HETATM   11  C26         0       8.545   3.958  -0.019  1.00  0.00     0.094 A 
ENDROOT
BRANCH   3  12
HETATM   12  O2          0       6.523  -2.378   0.203  1.00  0.00    -0.318 OA
BRANCH  12  13
HETATM   13  C16         0       5.216  -3.118  -0.181  1.00  0.00     0.298 C 
HETATM   14  C14         0       5.427  -4.651   0.165  1.00  0.00     0.205 C 
HETATM   15  C12         0       4.214  -5.492  -0.287  1.00  0.00     0.183 C 
HETATM   16  C13         0       2.964  -4.982   0.404  1.00  0.00     0.180 C 
HETATM   17  C15         0       2.796  -3.483   0.037  1.00  0.00     0.179 C 
HETATM   18  O1          0       3.987  -2.680   0.505  1.00  0.00    -0.348 OA
BRANCH  14  19
HETATM   19  O5          0       6.579  -5.151  -0.504  1.00  0.00    -0.388 OA
HETATM   20  H42         0       6.698  -6.109  -0.272  1.00  0.00     0.210 HD
ENDBRANCH  14  19
BRANCH  15  21
HETATM   21  O3          0       4.428  -6.877   0.045  1.00  0.00    -0.390 OA
HETATM   22  H40         0       3.659  -7.425  -0.254  1.00  0.00     0.210 HD
ENDBRANCH  15  21
BRANCH  16  23
HETATM   23  O4          0       1.824  -5.748  -0.044  1.00  0.00    -0.390 OA
HETATM   24  H41         0       1.932  -6.701   0.199  1.00  0.00     0.210 HD
ENDBRANCH  16  23
BRANCH  17  25
HETATM   25  C17         0       1.492  -2.973   0.701  1.00  0.00     0.198 C 
BRANCH  25  26
HETATM   26  O6          0       0.373  -3.746   0.206  1.00  0.00    -0.398 OA
HETATM   27  H43         0      -0.469  -3.447   0.630  1.00  0.00     0.209 HD
ENDBRANCH  25  26
ENDBRANCH  17  25
ENDBRANCH  12  13
ENDBRANCH   3  12
BRANCH   8  28
HETATM   28  O8          0       4.723   2.224  -0.302  1.00  0.00    -0.360 OA
HETATM   29  H47         0       3.905   1.681  -0.361  1.00  0.00     0.217 HD
ENDBRANCH   8  28
BRANCH  10  30
HETATM   30  C27         0      10.959   4.019   0.113  1.00  0.00     0.001 A 
HETATM   31  C28         0      12.184   3.479   0.161  1.00  0.00     0.053 A 
HETATM   32  C30         0      13.401   4.384   0.120  1.00  0.00     0.099 A 
HETATM   33  C32         0      13.254   5.712   0.041  1.00  0.00     0.098 A 
HETATM   34  C31         0      11.919   6.285  -0.007  1.00  0.00     0.040 A 
HETATM   35  C29         0      10.844   5.496   0.023  1.00  0.00     0.017 A 
BRANCH  32  36
HETATM   36  O10         0      14.692   3.838   0.160  1.00  0.00    -0.358 OA
HETATM   37  H51         0      15.373   4.564   0.119  1.00  0.00     0.217 HD
ENDBRANCH  32  36
BRANCH  33  38
HETATM   38  O11         0      14.376   6.561   0.001  1.00  0.00    -0.358 OA
HETATM   39  H52         0      14.083   7.510  -0.057  1.00  0.00     0.217 HD
ENDBRANCH  33  38
ENDBRANCH  10  30
TORSDOF 11
