REMARK  7 active torsions:
REMARK  status: ('A' for Active; 'I' for Inactive)
REMARK    1  A    between atoms: O1_1  and  C13_13 
REMARK    2  A    between atoms: O2_2  and  C23_23 
REMARK    3  A    between atoms: O3_3  and  C24_24 
REMARK    4  A    between atoms: O4_4  and  C30_30 
REMARK    5  A    between atoms: O5_5  and  C34_34 
REMARK    6  A    between atoms: C14_14  and  C30_30 
REMARK    7  A    between atoms: C20_20  and  C34_34 
ROOT
HETATM    1  C7          0       7.005  -0.914   0.285  1.00  0.00    -0.026 C 
HETATM    2  C8          0       5.624  -0.186  -0.147  1.00  0.00     0.007 C 
HETATM    3  C9          0       4.273  -0.922   0.390  1.00  0.00    -0.030 C 
HETATM    4  C10         0       8.210  -0.156  -0.416  1.00  0.00    -0.013 C 
HETATM    5  C11         0       4.315  -2.434  -0.216  1.00  0.00     0.036 C 
HETATM    6  C12         0       6.921  -2.377  -0.269  1.00  0.00     0.042 C 
HETATM    7  C13         0       5.658  -3.191   0.235  1.00  0.00     0.124 C 
HETATM    8  C14         0       2.971  -3.300   0.146  1.00  0.00     0.012 C 
HETATM    9  C15         0       8.216   1.351  -0.061  1.00  0.00    -0.069 C 
HETATM   10  C16         0       9.618   2.091   0.153  1.00  0.00     0.038 C 
HETATM   11  C17         0       2.985  -0.244  -0.165  1.00  0.00     0.044 C 
HETATM   12  C18         0       5.669   1.284   0.354  1.00  0.00     0.033 C 
HETATM   13  C19         0       9.611  -0.797  -0.093  1.00  0.00     0.016 C 
HETATM   14  C20         0      10.882   1.427  -0.579  1.00  0.00     0.053 C 
HETATM   15  C21         0       7.343  -0.919   1.827  1.00  0.00     0.016 C 
HETATM   16  C22         0      10.568  -0.031  -1.003  1.00  0.00     0.022 C 
HETATM   17  C23         0       1.746  -2.491  -0.388  1.00  0.00     0.157 C 
HETATM   18  C24         0       1.678  -1.060   0.241  1.00  0.00     0.148 C 
HETATM   19  C25         0       4.185  -0.788   1.957  1.00  0.00     0.016 C 
HETATM   20  C26         0       7.058   1.969   0.257  1.00  0.00    -0.022 C 
HETATM   21  C27         0       8.023  -0.261  -1.973  1.00  0.00     0.021 C 
HETATM   22  C28         0       9.615   3.749   0.043  1.00  0.00    -0.005 C 
HETATM   23  C29         0      11.287   2.222  -1.785  1.00  0.00     0.021 C 
HETATM   24  C31         0      11.031   4.265   0.033  1.00  0.00    -0.014 C 
HETATM   25  C32         0       2.759  -3.622   1.659  1.00  0.00     0.020 C 
HETATM   26  C33         0      11.654   3.724  -1.356  1.00  0.00     0.006 C 
HETATM   27  C35         0       8.808   4.399   1.200  1.00  0.00     0.011 C 
HETATM   28  C36         0      11.108   5.804  -0.005  1.00  0.00     0.010 C 
ENDROOT
BRANCH   8  29
HETATM   29  C30         0       3.013  -4.675  -0.560  1.00  0.00     0.176 C 
BRANCH  29  30
HETATM   30  O4          0       1.821  -5.411  -0.254  1.00  0.00    -0.400 OA
HETATM   31  H83         0       1.856  -6.300  -0.683  1.00  0.00     0.209 HD
ENDBRANCH  29  30
ENDBRANCH   8  29
BRANCH  17  32
HETATM   32  O2          0       0.545  -3.213  -0.079  1.00  0.00    -0.392 OA
HETATM   33  H78         0      -0.240  -2.720  -0.419  1.00  0.00     0.210 HD
ENDBRANCH  17  32
BRANCH   7  34
HETATM   34  O1          0       5.723  -3.384   1.642  1.00  0.00    -0.395 OA
HETATM   35  H74         0       6.553  -3.871   1.861  1.00  0.00     0.210 HD
ENDBRANCH   7  34
BRANCH  18  36
HETATM   36  O3          0       0.530  -0.391  -0.282  1.00  0.00    -0.393 OA
HETATM   37  H79         0       0.469   0.513   0.111  1.00  0.00     0.210 HD
ENDBRANCH  18  36
BRANCH  14  38
HETATM   38  C34         0      12.055   1.348   0.453  1.00  0.00     0.149 C 
HETATM   39  O6          0      11.851   0.867   1.574  1.00  0.00    -0.649 OA
BRANCH  38  40
HETATM   40  O5          0      13.337   1.808   0.144  1.00  0.00    -0.776 OA
HETATM   41  H84         0      13.931   1.683   0.930  1.00  0.00     0.167 HD
ENDBRANCH  38  40
ENDBRANCH  14  38
TORSDOF 7
