REMARK  7 active torsions:
REMARK  status: ('A' for Active; 'I' for Inactive)
REMARK    1  A    between atoms: O2_2  and  C13_13 
REMARK    2  A    between atoms: O3_3  and  C15_15 
REMARK    3  A    between atoms: O5_5  and  C19_19 
REMARK    4  A    between atoms: O6_6  and  C21_21 
REMARK    5  A    between atoms: O7_7  and  C22_22 
REMARK    6  A    between atoms: O8_8  and  C23_23 
REMARK    7  A    between atoms: C10_10  and  C12_12 
ROOT
HETATM    1  O1          0       5.901  -0.350   0.000  1.00  0.00    -0.306 OA
HETATM    2  O4          0       5.828   3.683  -0.001  1.00  0.00    -0.284 OA
HETATM    3  C9          0       4.600   1.719  -0.001  1.00  0.00     0.084 A 
HETATM    4  C10         0       7.105   0.367   0.000  1.00  0.00     0.123 A 
HETATM    5  C11         0       4.666   0.275   0.000  1.00  0.00     0.096 A 
HETATM    6  C13         0       7.089   1.722  -0.000  1.00  0.00     0.152 A 
HETATM    7  C14         0       5.829   2.447  -0.000  1.00  0.00     0.223 A 
HETATM    8  C15         0       3.426   2.353   0.000  1.00  0.00     0.085 A 
HETATM    9  C16         0       3.537  -0.436   0.000  1.00  0.00     0.075 A 
HETATM   10  C19         0       2.234   0.258   0.000  1.00  0.00     0.071 A 
HETATM   11  C20         0       2.189   1.587  -0.000  1.00  0.00     0.074 A 
ENDROOT
BRANCH   4  12
HETATM   12  C12         0       8.407  -0.421  -0.000  1.00  0.00     0.006 A 
HETATM   13  C18         0       8.385  -1.899   0.000  1.00  0.00     0.054 A 
HETATM   14  C21         0       9.534  -2.586   0.000  1.00  0.00     0.102 A 
HETATM   15  C23         0      10.819  -1.873   0.001  1.00  0.00     0.132 A 
HETATM   16  C22         0      10.835  -0.546  -0.000  1.00  0.00     0.102 A 
HETATM   17  C17         0       9.589   0.195   0.000  1.00  0.00     0.054 A 
BRANCH  14  18
HETATM   18  O6          0       9.521  -3.978   0.001  1.00  0.00    -0.358 OA
HETATM   19  H31         0       8.589  -4.302   0.001  1.00  0.00     0.217 HD
ENDBRANCH  14  18
BRANCH  15  20
HETATM   20  O8          0      12.024  -2.574   0.000  1.00  0.00    -0.356 OA
HETATM   21  H33         0      11.848  -3.545   0.001  1.00  0.00     0.218 HD
ENDBRANCH  15  20
BRANCH  16  22
HETATM   22  O7          0      12.042   0.139   0.000  1.00  0.00    -0.358 OA
HETATM   23  H32         0      11.865   1.113  -0.000  1.00  0.00     0.217 HD
ENDBRANCH  16  22
ENDBRANCH   4  12
BRANCH   6  24
HETATM   24  O2          0       8.256   2.485  -0.000  1.00  0.00    -0.355 OA
HETATM   25  H28         0       8.031   3.444  -0.001  1.00  0.00     0.218 HD
ENDBRANCH   6  24
BRANCH  10  26
HETATM   26  O5          0       1.047  -0.466   0.000  1.00  0.00    -0.361 OA
HETATM   27  H30         0       0.279   0.163   0.000  1.00  0.00     0.217 HD
ENDBRANCH  10  26
BRANCH   8  28
HETATM   28  O3          0       3.373   3.744  -0.001  1.00  0.00    -0.360 OA
HETATM   29  H29         0       2.430   4.039  -0.001  1.00  0.00     0.217 HD
ENDBRANCH   8  28
TORSDOF 7
