REMARK  0 active torsions:
REMARK  status: ('A' for Active; 'I' for Inactive)
ROOT
HETATM    1  O1          0       4.667   1.284   1.712  1.00  0.00    -0.367 OA
HETATM    2  O2          0       7.174  -0.130   0.594  1.00  0.00    -0.309 OA
HETATM    3  O3          0       8.831  -1.749   0.461  1.00  0.00    -0.260 OA
HETATM    4  C4          0       4.835   2.351   0.604  1.00  0.00     0.087 A 
HETATM    5  C5          0       4.936   0.914   0.410  1.00  0.00     0.187 A 
HETATM    6  C6          0       5.909  -0.094  -0.014  1.00  0.00     0.172 C 
HETATM    7  C7          0       5.301  -1.572   0.271  1.00  0.00     0.056 C 
HETATM    8  C8          0       3.507   2.778  -0.314  1.00  0.00     0.044 C 
HETATM    9  C9          0       6.212   2.961   0.287  1.00  0.00     0.049 C 
HETATM   10  C10         0       3.924  -2.196  -0.480  1.00  0.00     0.016 C 
HETATM   11  C11         0       1.954   2.220   0.092  1.00  0.00     0.030 C 
HETATM   12  C12         0       6.551  -2.284  -0.019  1.00  0.00     0.015 C 
HETATM   13  C13         0       2.382  -1.662  -0.142  1.00  0.00     0.034 C 
HETATM   14  C14         0       7.648  -1.405   0.367  1.00  0.00     0.289 C 
HETATM   15  C15         0       1.884   0.677   0.322  1.00  0.00    -0.024 C 
HETATM   16  C16         0       2.101  -0.259  -0.632  1.00  0.00    -0.087 C 
HETATM   17  C17         0       6.657  -3.574  -0.328  1.00  0.00     0.025 C 
HETATM   18  C18         0       2.355   0.080  -2.095  1.00  0.00     0.043 C 
ENDROOT
TORSDOF 0
