REMARK  5 active torsions:
REMARK  status: ('A' for Active; 'I' for Inactive)
REMARK    1  A    between atoms: N4_4  and  C8_8 
REMARK    2  A    between atoms: C8_8  and  C9_9 
REMARK    3  A    between atoms: C9_9  and  C10_10 
REMARK    4  A    between atoms: C10_10  and  C15_15 
REMARK    5  A    between atoms: C15_15  and  C19_19 
ROOT
HETATM    1  O1          0       8.833   2.502  -0.000  1.00  0.00    -0.265 OA
HETATM    2  O2          0       6.745  -1.676   0.000  1.00  0.00    -0.246 OA
HETATM    3  N4          0       7.648   0.530   0.000  1.00  0.00    -0.264 N 
HETATM    4  N5          0       9.009  -1.565   0.000  1.00  0.00    -0.286 N 
HETATM    5  N6          0      11.397   0.964   0.000  1.00  0.00    -0.338 N 
HETATM    6  N7          0      11.486  -1.217   0.000  1.00  0.00    -0.223 NA
HETATM    7  C11         0      10.103   0.523   0.000  1.00  0.00     0.151 A 
HETATM    8  C12         0       8.853   1.266   0.000  1.00  0.00     0.282 A 
HETATM    9  C13         0      10.145  -0.782   0.000  1.00  0.00     0.167 A 
HETATM   10  C14         0       7.739  -0.942   0.000  1.00  0.00     0.333 A 
HETATM   11  C16         0      12.237  -0.171   0.000  1.00  0.00     0.212 A 
HETATM   12  C17         0       9.115  -2.994   0.000  1.00  0.00     0.163 C 
HETATM   13  C18         0      11.845   2.329   0.000  1.00  0.00     0.157 C 
ENDROOT
BRANCH   3  14
HETATM   14  C8          0       6.379   1.309  -0.000  1.00  0.00     0.137 C 
BRANCH  14  15
HETATM   15  C9          0       5.066   0.486  -0.000  1.00  0.00     0.021 C 
BRANCH  15  16
HETATM   16  C10         0       3.835   1.412  -0.000  1.00  0.00     0.009 C 
BRANCH  16  17
HETATM   17  C15         0       2.563   0.537  -0.001  1.00  0.00     0.078 C 
BRANCH  17  18
HETATM   18  C19         0       1.333   1.401  -0.001  1.00  0.00     0.123 C 
HETATM   19  C20         0      -0.028   0.765  -0.001  1.00  0.00     0.091 C 
HETATM   20  O3          0       1.439   2.633  -0.000  1.00  0.00    -0.298 OA
ENDBRANCH  17  18
ENDBRANCH  16  17
ENDBRANCH  15  16
ENDBRANCH  14  15
ENDBRANCH   3  14
TORSDOF 5
