REMARK  6 active torsions:
REMARK  status: ('A' for Active; 'I' for Inactive)
REMARK    1  A    between atoms: O2_11  and  C8_7 
REMARK    2  A    between atoms: O3_13  and  C9_4 
REMARK    3  A    between atoms: O4_9  and  C10_8 
REMARK    4  A    between atoms: O5_15  and  C11_5 
REMARK    5  A    between atoms: C7_3  and  C8_7 
REMARK    6  A    between atoms: C8_7  and  C10_8 
ROOT
HETATM    1  O1          0       5.329  -0.784   0.028  1.00  0.00    -0.301 OA
HETATM    2  O6          0       5.409  -2.913   0.928  1.00  0.00    -0.257 OA
HETATM    3  C7          0       4.327  -0.002  -0.641  1.00  0.00     0.222 A 
HETATM    4  C9          0       3.098  -0.876  -0.536  1.00  0.00     0.114 A 
HETATM    5  C11         0       3.406  -2.023   0.046  1.00  0.00     0.173 A 
HETATM    6  C12         0       4.793  -1.993   0.376  1.00  0.00     0.320 A 
ENDROOT
BRANCH   3   7
HETATM    7  C8          0       4.117   1.419  -0.087  1.00  0.00     0.177 C 
BRANCH   7   8
HETATM    8  C10         0       5.428   2.211  -0.246  1.00  0.00     0.198 C 
BRANCH   8   9
HETATM    9  O4          0       5.253   3.545   0.235  1.00  0.00    -0.398 OA
HETATM   10  H19         0       6.095   4.051   0.115  1.00  0.00     0.209 HD
ENDBRANCH   8   9
ENDBRANCH   7   8
BRANCH   7  11
HETATM   11  O2          0       3.748   1.367   1.292  1.00  0.00    -0.390 OA
HETATM   12  H17         0       3.613   2.290   1.629  1.00  0.00     0.210 HD
ENDBRANCH   7  11
ENDBRANCH   3   7
BRANCH   4  13
HETATM   13  O3          0       1.831  -0.527  -0.984  1.00  0.00    -0.359 OA
HETATM   14  H18         0       1.201  -1.267  -0.802  1.00  0.00     0.217 HD
ENDBRANCH   4  13
BRANCH   5  15
HETATM   15  O5          0       2.532  -3.077   0.285  1.00  0.00    -0.353 OA
HETATM   16  H20         0       3.021  -3.818   0.722  1.00  0.00     0.218 HD
ENDBRANCH   5  15
TORSDOF 6
