REMARK  6 active torsions:
REMARK  status: ('A' for Active; 'I' for Inactive)
REMARK    1  A    between atoms: O2_2  and  C12_12 
REMARK    2  A    between atoms: O3_3  and  C14_14 
REMARK    3  A    between atoms: O5_5  and  C16_16 
REMARK    4  A    between atoms: O6_6  and  C20_20 
REMARK    5  A    between atoms: O7_7  and  C22_22 
REMARK    6  A    between atoms: C10_10  and  C11_11 
ROOT
HETATM    1  O1          0       5.859  -0.374   0.000  1.00  0.00    -0.306 OA
HETATM    2  O4          0       5.840   3.658  -0.000  1.00  0.00    -0.284 OA
HETATM    3  C8          0       4.585   1.712   0.002  1.00  0.00     0.084 A 
HETATM    4  C9          0       4.632   0.267  -0.001  1.00  0.00     0.096 A 
HETATM    5  C10         0       7.073   0.328  -0.001  1.00  0.00     0.123 A 
HETATM    6  C12         0       7.074   1.681   0.001  1.00  0.00     0.152 A 
HETATM    7  C13         0       5.825   2.423  -0.001  1.00  0.00     0.223 A 
HETATM    8  C14         0       3.421   2.362  -0.003  1.00  0.00     0.085 A 
HETATM    9  C15         0       3.493  -0.429   0.001  1.00  0.00     0.075 A 
HETATM   10  C16         0       2.200   0.283  -0.001  1.00  0.00     0.071 A 
HETATM   11  C18         0       2.173   1.613   0.001  1.00  0.00     0.074 A 
ENDROOT
BRANCH   5  12
HETATM   12  C11         0       8.365  -0.474   0.000  1.00  0.00     0.004 A 
HETATM   13  C17         0       8.323  -1.810   0.000  1.00  0.00     0.053 A 
HETATM   14  C20         0       9.586  -2.591   0.000  1.00  0.00     0.099 A 
HETATM   15  C22         0      10.761  -1.964   0.000  1.00  0.00     0.098 A 
HETATM   16  C21         0      10.810  -0.518   0.000  1.00  0.00     0.040 A 
HETATM   17  C19         0       9.684   0.185  -0.000  1.00  0.00     0.017 A 
BRANCH  14  18
HETATM   18  O6          0       9.556  -3.982   0.000  1.00  0.00    -0.358 OA
HETATM   19  H31         0       8.621  -4.294   0.000  1.00  0.00     0.217 HD
ENDBRANCH  14  18
BRANCH  15  20
HETATM   20  O7          0      11.946  -2.691   0.000  1.00  0.00    -0.358 OA
HETATM   21  H32         0      12.714  -2.063   0.000  1.00  0.00     0.217 HD
ENDBRANCH  15  20
ENDBRANCH   5  12
BRANCH   6  22
HETATM   22  O2          0       8.250   2.424  -0.000  1.00  0.00    -0.355 OA
HETATM   23  H28         0       8.039   3.386  -0.000  1.00  0.00     0.218 HD
ENDBRANCH   6  22
BRANCH  10  24
HETATM   24  O5          0       1.004  -0.424   0.000  1.00  0.00    -0.361 OA
HETATM   25  H30         0       0.244   0.216  -0.000  1.00  0.00     0.217 HD
ENDBRANCH  10  24
BRANCH   8  26
HETATM   26  O3          0       3.387   3.753   0.000  1.00  0.00    -0.360 OA
HETATM   27  H29         0       2.449   4.061  -0.000  1.00  0.00     0.217 HD
ENDBRANCH   8  26
TORSDOF 6
