REMARK  1 active torsions:
REMARK  status: ('A' for Active; 'I' for Inactive)
REMARK    1  A    between atoms: N5_5  and  C7_7 
ROOT
HETATM    1  O2          0       4.829   2.178  -0.084  1.00  0.00    -0.267 OA
HETATM    2  O3          0       4.740  -2.511  -0.207  1.00  0.00    -0.267 OA
HETATM    3  N5          0       5.303  -0.176  -0.175  1.00  0.00    -0.266 N 
HETATM    4  C11         0       4.469   0.995  -0.051  1.00  0.00     0.262 A 
HETATM    5  C12         0       4.426  -1.321  -0.111  1.00  0.00     0.262 A 
HETATM    6  C13         0       3.094   0.559   0.076  1.00  0.00     0.048 A 
HETATM    7  C14         0       3.068  -0.839   0.041  1.00  0.00     0.048 A 
HETATM    8  C16         0       1.998   1.295   0.196  1.00  0.00     0.018 A 
HETATM    9  C17         0       1.945  -1.539   0.127  1.00  0.00     0.018 A 
HETATM   10  C18         0       0.710   0.570   0.300  1.00  0.00     0.001 A 
HETATM   11  C19         0       0.685  -0.773   0.268  1.00  0.00     0.001 A 
ENDROOT
BRANCH   3  12
HETATM   12  C7          0       6.782  -0.165  -0.397  1.00  0.00     0.189 C 
HETATM   13  C8          0       7.464   1.073   0.169  1.00  0.00     0.045 C 
HETATM   14  C9          0       8.934   1.077  -0.257  1.00  0.00     0.106 C 
HETATM   15  C15         0       9.586  -0.221   0.123  1.00  0.00     0.224 C 
HETATM   16  N6          0       8.874  -1.345   0.285  1.00  0.00    -0.296 N 
HETATM   17  O4          0      10.809  -0.254   0.291  1.00  0.00    -0.273 OA
HETATM   18  H25         0       9.351  -2.173   0.558  1.00  0.00     0.171 HD
HETATM   19  C10         0       7.554  -1.399   0.079  1.00  0.00     0.247 C 
HETATM   20  O1          0       6.992  -2.484   0.253  1.00  0.00    -0.271 OA
ENDBRANCH   3  12
TORSDOF 1
