REMARK  3 active torsions:
REMARK  status: ('A' for Active; 'I' for Inactive)
REMARK    1  A    between atoms: O1_1  and  C21_21 
REMARK    2  A    between atoms: O2_2  and  C31_31 
REMARK    3  A    between atoms: C17_17  and  C31_31 
ROOT
HETATM    1  C4          0       7.091  -1.493   0.378  1.00  0.00    -0.028 C 
HETATM    2  C5          0       5.725  -0.750  -0.082  1.00  0.00     0.007 C 
HETATM    3  C6          0       4.378  -1.433   0.462  1.00  0.00    -0.035 C 
HETATM    4  C7          0       8.298  -0.775  -0.344  1.00  0.00    -0.013 C 
HETATM    5  C8          0       4.415  -2.953  -0.065  1.00  0.00     0.004 C 
HETATM    6  C9          0       6.992  -2.964  -0.095  1.00  0.00     0.011 C 
HETATM    7  C10         0       8.324   0.737  -0.040  1.00  0.00    -0.069 C 
HETATM    8  C11         0       5.707  -3.683   0.457  1.00  0.00     0.007 C 
HETATM    9  C12         0       3.104  -3.802   0.291  1.00  0.00    -0.017 C 
HETATM   10  C13         0       9.716   1.465   0.167  1.00  0.00     0.038 C 
HETATM   11  C14         0       5.780   0.729   0.359  1.00  0.00     0.033 C 
HETATM   12  C15         0       9.695  -1.419  -0.014  1.00  0.00     0.016 C 
HETATM   13  C16         0       3.115  -0.771  -0.122  1.00  0.00     0.012 C 
HETATM   14  C17         0      10.968   0.781  -0.568  1.00  0.00     0.053 C 
HETATM   15  C18         0      10.645  -0.684  -0.956  1.00  0.00     0.022 C 
HETATM   16  C19         0       7.408  -1.470   1.923  1.00  0.00     0.016 C 
HETATM   17  C20         0       7.167   1.387   0.253  1.00  0.00    -0.022 C 
HETATM   18  C21         0       1.887  -3.018  -0.266  1.00  0.00     0.126 C 
HETATM   19  C22         0       4.262  -1.242   2.024  1.00  0.00     0.016 C 
HETATM   20  C23         0       1.832  -1.573   0.337  1.00  0.00     0.033 C 
HETATM   21  C24         0       9.724   3.118   0.042  1.00  0.00    -0.005 C 
HETATM   22  C25         0       8.109  -0.932  -1.902  1.00  0.00     0.021 C 
HETATM   23  C26         0      11.365   1.557  -1.787  1.00  0.00     0.021 C 
HETATM   24  C27         0      11.138   3.623   0.016  1.00  0.00    -0.014 C 
HETATM   25  C28         0       3.182  -5.182  -0.385  1.00  0.00     0.018 C 
HETATM   26  C29         0       2.886  -4.081   1.810  1.00  0.00     0.018 C 
HETATM   27  C30         0      11.744   3.062  -1.377  1.00  0.00     0.006 C 
HETATM   28  C32         0       8.932   3.787   1.205  1.00  0.00     0.011 C 
HETATM   29  C33         0      11.225   5.160  -0.037  1.00  0.00     0.010 C 
ENDROOT
BRANCH  14  30
HETATM   30  C31         0      12.145   0.706   0.454  1.00  0.00     0.149 C 
HETATM   31  O3          0      11.943   0.249   1.584  1.00  0.00    -0.649 OA
BRANCH  30  32
HETATM   32  O2          0      13.429   1.136   0.124  1.00  0.00    -0.776 OA
HETATM   33  H81         0      14.025   1.015   0.907  1.00  0.00     0.167 HD
ENDBRANCH  30  32
ENDBRANCH  14  30
BRANCH  18  34
HETATM   34  O1          0       0.697  -3.747   0.058  1.00  0.00    -0.395 OA
HETATM   35  H77         0      -0.094  -3.264  -0.284  1.00  0.00     0.210 HD
ENDBRANCH  18  34
TORSDOF 3
