REMARK  7 active torsions:
REMARK  status: ('A' for Active; 'I' for Inactive)
REMARK       I    between atoms: N5_5  and  C13_13 
REMARK    1  A    between atoms: N5_5  and  C14_14 
REMARK    2  A    between atoms: N6_6  and  C20_20 
REMARK    3  A    between atoms: N6_6  and  C17_17 
REMARK    4  A    between atoms: N7_7  and  C23_23 
REMARK    5  A    between atoms: N7_7  and  C21_21 
REMARK    6  A    between atoms: C10_10  and  C13_13 
REMARK    7  A    between atoms: C24_24  and  C29_29 
ROOT
HETATM    1  N8          0       6.674   2.851  -0.007  1.00  0.00    -0.224 NA
HETATM    2  N9          0       4.354   2.702   0.005  1.00  0.00    -0.224 NA
HETATM    3  C20         0       6.846   1.591  -0.017  1.00  0.00     0.133 A 
HETATM    4  C22         0       5.622   0.718  -0.015  1.00  0.00     0.100 A 
HETATM    5  C23         0       4.408   1.303  -0.004  1.00  0.00     0.133 A 
HETATM    6  C30         0       5.402   3.419   0.004  1.00  0.00     0.237 A 
ENDROOT
BRANCH   3   7
HETATM    7  N6          0       8.204   1.024  -0.031  1.00  0.00    -0.341 N 
HETATM    8  H41         0       8.305   0.034  -0.046  1.00  0.00     0.167 HD
BRANCH   7   9
HETATM    9  C17         0       9.428   1.853  -0.014  1.00  0.00     0.035 A 
HETATM   10  C15         0      10.650   1.290  -0.026  1.00  0.00     0.059 A 
HETATM   11  C14         0      11.893   2.148   0.004  1.00  0.00     0.036 A 
HETATM   12  C16         0      11.743   3.477   0.040  1.00  0.00     0.029 A 
HETATM   13  C18         0      10.428   4.080   0.048  1.00  0.00     0.004 A 
HETATM   14  C19         0       9.339   3.323   0.023  1.00  0.00     0.029 A 
BRANCH  11  15
HETATM   15  N5          0      13.230   1.550  -0.008  1.00  0.00    -0.327 N 
HETATM   16  H36         0      13.288   0.562  -0.106  1.00  0.00     0.169 HD
HETATM   17  C13         0      14.385   2.276   0.114  1.00  0.00     0.226 C 
HETATM   18  O4          0      14.356   3.510   0.256  1.00  0.00    -0.273 OA
BRANCH  17  19
HETATM   19  C10         0      15.781   1.644   0.094  1.00  0.00     0.078 A 
HETATM   20  C12         0      15.973   0.514  -0.940  1.00  0.00     0.015 A 
HETATM   21  C11         0      15.915   0.179   0.563  1.00  0.00     0.015 A 
ENDBRANCH  17  19
ENDBRANCH  11  15
ENDBRANCH   7   9
ENDBRANCH   3   7
BRANCH   5  22
HETATM   22  N7          0       3.098   0.624  -0.005  1.00  0.00    -0.341 N 
HETATM   23  H43         0       2.299   1.219  -0.016  1.00  0.00     0.167 HD
BRANCH  22  24
HETATM   24  C21         0       2.823  -0.802   0.007  1.00  0.00     0.034 A 
HETATM   25  C25         0       1.396  -1.230  -0.032  1.00  0.00     0.045 A 
HETATM   26  C24         0       1.072  -2.526  -0.023  1.00  0.00     0.050 A 
HETATM   27  C27         0       2.126  -3.533   0.026  1.00  0.00     0.016 A 
HETATM   28  C28         0       3.405  -3.162   0.062  1.00  0.00     0.003 A 
HETATM   29  C26         0       3.769  -1.740   0.051  1.00  0.00     0.029 A 
BRANCH  26  30
HETATM   30  C29         0      -0.377  -2.965  -0.067  1.00  0.00     0.417 C 
HETATM   31  F1          0      -0.967  -2.662   1.143  1.00  0.00    -0.166 F 
HETATM   32  F2          0      -0.468  -4.325  -0.295  1.00  0.00    -0.166 F 
HETATM   33  F3          0      -1.056  -2.245  -1.029  1.00  0.00    -0.166 F 
ENDBRANCH  26  30
ENDBRANCH  22  24
ENDBRANCH   5  22
TORSDOF 7
