REMARK  0 active torsions:
REMARK  status: ('A' for Active; 'I' for Inactive)
ROOT
HETATM    1 CL1          0       8.703   1.666  -0.000  1.00  0.00    -0.082 Cl
HETATM    2 CL2          0       8.675  -1.392  -0.000  1.00  0.00    -0.082 Cl
HETATM    3  O3          0       1.612   2.468   0.001  1.00  0.00    -0.273 OA
HETATM    4  N4          0       3.669   1.779   0.000  1.00  0.00    -0.325 N 
HETATM    5  N5          0       3.642  -1.402  -0.000  1.00  0.00    -0.255 NA
HETATM    6  C6          0       1.691   0.152   0.000  1.00  0.00     0.157 A 
HETATM    7  C7          0       4.767   0.917   0.000  1.00  0.00     0.065 A 
HETATM    8  C8          0       4.754  -0.571  -0.000  1.00  0.00     0.085 A 
HETATM    9  C9          0       2.395  -1.170   0.000  1.00  0.00     0.018 A 
HETATM   10  C10         0       2.369   1.492   0.000  1.00  0.00     0.227 A 
HETATM   11  C11         0       5.946   1.542   0.000  1.00  0.00     0.057 A 
HETATM   12  C12         0       5.922  -1.219  -0.000  1.00  0.00     0.059 A 
HETATM   13  C13         0       1.509  -2.380   0.000  1.00  0.00     0.066 C 
HETATM   14  C14         0       7.201   0.812  -0.000  1.00  0.00     0.058 A 
HETATM   15  C15         0       7.189  -0.512  -0.000  1.00  0.00     0.058 A 
HETATM   16  H18         0       3.889   2.748   0.000  1.00  0.00     0.169 HD
ENDROOT
TORSDOF 0
