REMARK  4 active torsions:
REMARK  status: ('A' for Active; 'I' for Inactive)
REMARK    1  A    between atoms: O2_2  and  C9_9 
REMARK    2  A    between atoms: O3_3  and  C11_11 
REMARK    3  A    between atoms: O4_4  and  C14_14 
REMARK    4  A    between atoms: C8_8  and  C13_13 
ROOT
HETATM    1  O1          0       5.967  -0.804  -0.000  1.00  0.00    -0.306 OA
HETATM    2  O5          0       6.023   3.169   0.000  1.00  0.00    -0.287 OA
HETATM    3  C6          0       4.747   1.214   0.000  1.00  0.00     0.084 A 
HETATM    4  C7          0       4.758  -0.119   0.000  1.00  0.00     0.129 A 
HETATM    5  C8          0       7.183  -0.140   0.000  1.00  0.00     0.090 A 
HETATM    6  C9          0       3.485  -0.880  -0.000  1.00  0.00     0.136 A 
HETATM    7  C10         0       6.001   1.934   0.000  1.00  0.00     0.190 A 
HETATM    8  C11         0       3.493   1.940   0.000  1.00  0.00     0.085 A 
HETATM    9  C12         0       7.228   1.189   0.000  1.00  0.00     0.094 A 
HETATM   10  C14         0       2.316  -0.186   0.000  1.00  0.00     0.104 A 
HETATM   11  C15         0       2.345   1.277  -0.000  1.00  0.00     0.077 A 
ENDROOT
BRANCH   5  12
HETATM   12  C13         0       8.449  -0.881  -0.000  1.00  0.00    -0.002 A 
HETATM   13  C17         0       8.460  -2.345  -0.000  1.00  0.00     0.014 A 
HETATM   14  C19         0       9.622  -2.999  -0.000  1.00  0.00     0.001 A 
HETATM   15  C20         0      10.887  -2.254  -0.000  1.00  0.00     0.000 A 
HETATM   16  C18         0      10.875  -0.923  -0.000  1.00  0.00     0.001 A 
HETATM   17  C16         0       9.599  -0.207  -0.000  1.00  0.00     0.014 A 
ENDBRANCH   5  12
BRANCH   6  18
HETATM   18  O2          0       3.628  -2.327  -0.000  1.00  0.00    -0.351 OA
HETATM   19  C21         0       2.443  -3.140  -0.000  1.00  0.00     0.210 C 
ENDBRANCH   6  18
BRANCH   8  20
HETATM   20  O3          0       3.488   3.329   0.000  1.00  0.00    -0.360 OA
HETATM   21  H29         0       2.555   3.654   0.000  1.00  0.00     0.217 HD
ENDBRANCH   8  20
BRANCH  10  22
HETATM   22  O4          0       1.049  -0.774  -0.000  1.00  0.00    -0.358 OA
HETATM   23  H30         0       0.358  -0.063  -0.000  1.00  0.00     0.217 HD
ENDBRANCH  10  22
TORSDOF 4
